version 2
run General-0-20220411-14:53:19-2720
attr configname General
attr datetime 20220411-14:53:19
attr experiment General
attr inifile omnetpp.ini
attr iterationvars ""
attr iterationvarsf ""
attr measurement ""
attr network UP4
attr processid 2720
attr repetition 0
attr replication #0
attr resultdir results
attr runnumber 0
attr seedset 0
param *.client1.packet_drop 0.03
param *.client2.packet_drop 0.04
param *.client3.packet_drop 0.05
param *.client4.packet_drop 0.06
param *.node1.packet_drop 0.01
param *.node2.packet_drop 0.01
param *.node3.packet_drop 0.02
param *.node4.packet_drop 0.02
param *.node5.packet_drop 0.01

vector 0 UP4.node7 "" ETV
vector 1 UP4.node1 "" ETV
vector 2 UP4.node2 "" ETV
vector 3 UP4.node5 "" ETV
vector 4 UP4.node3 "" ETV
vector 5 UP4.node4 "" ETV
vector 6 UP4.node6 "" ETV
0	4	0.593574941089	3.180081444
0	182	1.074864258199	3.180081444
0	367	1.650465440424	3.180081444
0	616	2.451210768778	3.180081444
0	887	3.12713968407	3.180081444
0	1089	3.775880163692	20.135093986
0	1149	3.932228754136	3.180081444
0	1428	4.635802840466	3.180081444
0	1549	4.880981400517	3.180081444
0	1726	5.200964429766	3.180081444
0	1989	5.632817078918	3.180081444
0	2172	6.27717804513	3.180081444
0	2259	6.48403298799	3.180081444
0	2563	7.207257895405	3.180081444
0	2723	7.567723377282	3.180081444
0	2800	7.67194931116	3.180081444
0	3054	8.433623929555	3.180081444
0	3237	8.936036770232	3.180081444
0	3491	9.829029650986	3.180081444
0	3723	10.310499190539	3.180081444
0	3965	10.796391019272	3.180081444
0	4216	11.484271753161	3.180081444
0	4505	12.217771480163	3.180081444
0	4580	12.429209464323	3.180081444
0	4963	13.292416868895	3.180081444
0	5015	13.402959542256	3.180081444
0	5161	13.826939795423	3.180081444
0	5273	13.975843982865	3.180081444
0	5633	14.790171915084	3.180081444
0	5884	15.442741272366	3.180081444
0	6378	16.392676422047	3.180081444
0	6705	17.383981473442	3.180081444
0	6815	17.73016930339	3.180081444
0	6991	18.448908748898	3.180081444
0	7092	18.572005191004	3.180081444
0	7280	19.008758171695	3.180081444
0	7493	19.574399371725	3.180081444
0	7711	19.994450833253	3.180081444
0	7922	20.591424057563	3.180081444
0	8030	20.706210725708	3.180081444
0	8330	21.512380121275	3.180081444
0	8578	22.467235284555	3.180081444
0	8688	22.579148455663	3.180081444
0	9137	23.562794903876	3.180081444
0	9445	24.478694852093	3.180081444
0	9789	25.231729783351	3.180081444
0	9912	25.447815541157	3.180081444
0	10299	26.165017500078	3.180081444
0	10453	26.601449325635	3.180081444
0	10561	26.878798175511	3.180081444
0	10706	27.04805897507	3.180081444
0	10959	27.729072192103	3.180081444
0	11067	27.94504670303	3.180081444
0	11405	28.858632259422	3.180081444
0	11538	29.253580617278	3.180081444
0	11658	29.498065557449	3.180081444
0	11865	30.129951304246	3.180081444
0	12189	30.96864171203	3.180081444
0	12582	31.832776187153	3.180081444
0	12690	32.142245906105	3.180081444
0	12948	32.628162053253	3.180081444
0	13327	33.619472558752	3.180081444
0	13587	34.185050220603	3.180081444
0	13876	35.03084144483	3.180081444
0	14274	36.023651564588	3.180081444
0	14442	36.460518129287	3.180081444
0	14743	37.315788338008	3.180081444
0	15078	38.286957351887	3.180081444
0	15134	38.634298565449	3.180081444
0	15314	39.100358573022	3.180081444
0	15434	39.423930687318	3.180081444
0	15819	40.199466204388	3.180081444
0	16093	40.859612184601	3.180081444
0	16420	41.598915329926	3.180081444
0	16572	41.88769028627	3.180081444
0	16967	42.841665208178	3.180081444
0	17005	43.029183840124	3.180081444
0	17223	43.527015907435	3.180081444
0	17546	44.425280610077	3.180081444
0	17833	45.272188243247	3.180081444
0	18239	46.169862441649	3.180081444
0	18514	46.935757970228	3.180081444
0	18890	47.916245952221	39.938187971
0	18968	48.137427691556	3.180081444
0	19210	48.769351898925	3.180081444
0	19524	49.747954993927	3.180081444
0	19842	50.710821825754	3.180081444
0	19916	50.943849630071	3.180081444
0	20316	51.634240646937	3.180081444
0	20688	52.616901475749	3.180081444
0	20885	53.105485588544	3.180081444
0	21101	53.688716290122	3.180081444
0	21250	53.887522304895	3.180081444
0	21496	54.767972746094	3.180081444
0	21767	55.203867107256	3.180081444
0	22109	56.074515672097	3.180081444
0	22361	57.009006302058	3.180081444
0	22447	57.437426953296	3.180081444
0	22553	57.643069220007	3.180081444
0	22992	58.616727516636	3.180081444
0	23075	58.957213846337	3.180081444
0	23250	59.280130362743	3.180081444
0	23431	59.682622404326	3.180081444
0	23609	60.495314013236	3.180081444
0	23789	60.859983009286	3.180081444
0	23932	61.344196932716	3.180081444
0	24024	61.512020096113	3.180081444
0	24255	62.123415928357	3.180081444
0	24397	62.658470114693	3.180081444
0	24646	63.396602027351	3.180081444
0	24715	63.597786616906	3.180081444
0	24849	63.862516581336	3.180081444
0	25085	64.345378139172	3.180081444
0	25391	65.167982175038	3.180081444
0	25552	65.531581883738	3.180081444
0	25877	66.367187086679	3.180081444
0	25997	66.471824754099	3.180081444
0	26098	66.731129952473	3.180081444
0	26136	66.957414373615	3.180081444
0	26303	67.380510123516	3.180081444
0	26426	67.61353132457	3.180081444
0	26602	68.156234333455	3.180081444
0	26747	68.658423596085	3.180081444
0	26892	69.01934569974	3.180081444
0	27000	69.429423116218	3.180081444
0	27107	69.926612439915	3.180081444
0	27316	70.585664766375	3.180081444
0	27387	70.73910963235	3.180081444
0	27474	70.947217791062	3.180081444
0	27572	71.151526415884	3.180081444
0	27924	72.133963517449	3.180081444
0	28110	72.733144068183	3.180081444
0	28170	72.871775842272	3.180081444
0	28273	73.058618916427	39.938187971
0	28407	73.429904114385	3.180081444
0	28540	73.734530320414	3.180081444
0	28681	74.136910111131	3.180081444
0	29022	75.113346936996	3.180081444
0	29168	75.503447122639	3.180081444
0	29330	75.665711516188	3.180081444
0	29480	76.221392518281	3.180081444
0	29650	76.582615756685	3.180081444
0	29916	77.334163013915	3.180081444
0	30314	78.128265930525	3.180081444
0	30350	78.237323255417	3.180081444
0	30540	78.765566827542	3.180081444
0	30965	79.723874958487	3.180081444
0	31221	80.52432350784	3.180081444
0	31696	81.492755958996	3.180081444
0	32005	82.17966809587	3.180081444
0	32136	82.489163500745	3.180081444
1	17	0.597112233518	3.180081444
1	23	0.612119994353	21.725134708
1	255	1.278416937101	3.180081444
1	258	1.295371949643	20.135093986
1	542	2.211453907006	3.180081444
1	545	2.228408919548	20.135093986
1	805	3.013930165093	3.180081444
1	822	3.023695240816	20.135093986
1	1041	3.625520718587	3.180081444
1	1044	3.642475731129	20.135093986
1	1222	4.118849475985	3.180081444
1	1225	4.135804488527	20.135093986
1	1293	4.334883144498	3.180081444
1	1296	4.35183815704	20.135093986
1	1613	4.948060242855	3.180081444
1	1620	4.965015255397	20.135093986
1	1703	5.147397868102	3.180081444
1	1709	5.15575763664	21.725134708
1	1844	5.424321989133	3.180081444
1	1867	5.441277001675	20.135093986
1	1981	5.610810550139	3.180081444
1	1984	5.627765562681	20.135093986
1	2336	6.589895531861	3.180081444
1	2345	6.606850544403	20.135093986
1	2486	6.928746073856	3.180081444
1	2532	7.165630621411	20.135093986
1	2770	7.62941541248	3.180081444
1	2773	7.646370425022	20.135093986
1	2908	7.972422584263	3.180081444
1	2917	7.989377596805	20.135093986
1	3099	8.590964186564	3.180081444
1	3145	8.644948070748	20.135093986
1	3312	9.320495536295	3.180081444
1	3320	9.337450548837	20.135093986
1	3664	10.214057359891	3.180081444
1	3673	10.231012372433	20.135093986
1	3855	10.575127208838	3.180081444
1	3858	10.59208222138	20.135093986
1	4071	11.188095629238	3.180081444
1	4074	11.20505064178	20.135093986
1	4289	11.618901313724	3.180081444
1	4292	11.635856326266	20.135093986
1	4686	12.546435665408	3.180081444
1	4691	12.56339067795	20.135093986
1	4860	13.012900633317	3.180081444
1	4867	13.029855645859	20.135093986
1	5229	13.892644726716	3.180081444
1	5238	13.909599739258	20.135093986
1	5296	14.009314341422	3.180081444
1	5307	14.026269353964	20.135093986
1	5503	14.31084655586	3.180081444
1	5508	14.31308383117	20.135093986
1	5727	14.970177121901	3.180081444
1	5739	14.987132134443	20.135093986
1	5812	15.350927617888	3.180081444
1	5815	15.36788263043	20.135093986
1	6031	15.639786996551	3.180081444
1	6038	15.656742009093	20.135093986
1	6174	15.968707831039	3.180081444
1	6177	15.985662843581	20.135093986
1	6395	16.408684484566	3.180081444
1	6403	16.411221475311	21.725134708
1	6457	16.703891767467	3.180081444
1	6460	16.720846780009	20.135093986
1	6599	17.040881907706	3.180081444
1	6602	17.057836920248	20.135093986
1	6792	17.670367313385	3.180081444
1	6797	17.683977169817	20.135093986
1	7133	18.627879805792	3.180081444
1	7140	18.644834818334	20.135093986
1	7359	19.145097686279	3.180081444
1	7368	19.158756515868	20.135093986
1	7625	19.753976863202	3.180081444
1	7635	19.770931875744	20.135093986
1	7986	20.667324628773	3.180081444
1	7997	20.684279641315	20.135093986
1	8254	21.370249516795	3.180081444
1	8257	21.387204529337	20.135093986
1	8398	21.774592577222	3.180081444
1	8401	21.791547589764	20.135093986
1	8701	22.593874903417	3.180081444
1	8707	22.597693508927	21.725134708
1	8867	23.12440817931	3.180081444
1	8870	23.141363191852	20.135093986
1	9264	23.96431414075	3.180081444
1	9267	23.981269153292	20.135093986
1	9301	24.137305393906	3.180081444
1	9304	24.154260406448	20.135093986
1	9596	24.603822444866	3.180081444
1	9618	24.620777457408	20.135093986
1	9850	25.308665467517	3.180081444
1	9855	25.314933668515	20.135093986
1	10035	25.67707991667	23.31517543
1	10040	25.680104238002	3.180081444
1	10256	26.122038494234	3.180081444
1	10266	26.138993506776	20.135093986
1	10379	26.455518803254	3.180081444
1	10382	26.472473815796	20.135093986
1	10526	26.801058510502	3.180081444
1	10541	26.818013523044	20.135093986
1	10636	26.941209578092	3.180081444
1	10640	26.954718574036	21.725134708
1	11044	27.904699587656	3.180081444
1	11049	27.90730623032	20.135093986
1	11176	28.17311739125	3.180081444
1	11179	28.190072403792	20.135093986
1	11498	29.06695466472	3.180081444
1	11503	29.083909677262	20.135093986
1	11575	29.382972911067	3.180081444
1	11578	29.399927923609	20.135093986
1	11902	30.19972523837	3.180081444
1	11909	30.216680250912	20.135093986
1	12262	31.117684578706	3.180081444
1	12276	31.134639591248	20.135093986
1	12474	31.537516543336	3.180081444
1	12489	31.554471555878	20.135093986
1	12868	32.488287923435	3.180081444
1	12871	32.505242935977	20.135093986
1	12938	32.599120524313	3.180081444
1	12943	32.616075536855	20.135093986
1	13297	33.575951119626	3.180081444
1	13300	33.592906132168	20.135093986
1	13407	33.897407984591	3.180081444
1	13410	33.914362997133	20.135093986
1	13727	34.496627014756	3.180081444
1	13736	34.513582027298	20.135093986
1	13838	34.910294441853	3.180081444
1	13841	34.927249454395	20.135093986
1	13948	35.277195081066	3.180081444
1	13951	35.294150093608	20.135093986
1	14021	35.472510623674	3.180081444
1	14024	35.489465636216	20.135093986
1	14234	35.782588853709	3.180081444
1	14239	35.799543866251	20.135093986
1	14347	36.223740059974	3.180081444
1	14351	36.240695072516	20.135093986
1	14521	36.537766577535	3.180081444
1	14530	36.554721590077	20.135093986
1	14705	37.089917088275	3.180081444
1	14708	37.106872100817	20.135093986
1	14955	37.819534643575	3.180081444
1	14960	37.836489656117	20.135093986
1	15016	38.037695040855	3.180081444
1	15065	38.269458543895	21.725134708
1	15111	38.482222293525	3.180081444
1	15117	38.489257695889	21.725134708
1	15422	39.389307334482	3.180081444
1	15425	39.406262347024	20.135093986
1	15710	39.961780737362	3.180081444
1	15713	39.978735749904	20.135093986
1	15893	40.37540912784	3.180081444
1	15896	40.392364140382	20.135093986
1	16001	40.659840441773	3.180081444
1	16004	40.676795454315	20.135093986
1	16390	41.551151729187	3.180081444
1	16393	41.568106741729	20.135093986
1	16595	41.902312878401	3.180081444
1	16603	41.919267890943	20.135093986
1	16643	42.004745771268	3.180081444
1	16646	42.02170078381	20.135093986
1	16871	42.68722275798	3.180081444
1	16876	42.701440306608	20.135093986
1	17078	43.24604923059	3.180081444
1	17081	43.263004243132	20.135093986
1	17404	43.968645483628	4.770122166
1	17407	43.970609999632	3.180081444
1	17737	44.900723181709	3.180081444
1	17742	44.914389450144	20.135093986
1	18122	45.85765161074	3.180081444
1	18134	45.866365634621	20.135093986
1	18157	45.993305581294	3.180081444
1	18160	46.010260593836	20.135093986
1	18222	46.14725545002	3.180081444
1	18231	46.164210462562	20.135093986
1	18553	47.064215111987	3.180081444
1	18568	47.081170124529	20.135093986
1	18623	47.321407660258	3.180081444
1	18659	47.368151044463	21.725134708
1	18705	47.478294513908	3.180081444
1	18710	47.492469835974	20.135093986
1	18764	47.792866461606	3.180081444
1	18767	47.809821474148	20.135093986
1	19053	48.224001283523	3.180081444
1	19069	48.240956296065	20.135093986
1	19160	48.681532362009	3.180081444
1	19163	48.698487374551	20.135093986
1	19376	49.355356788657	3.180081444
1	19379	49.372311801199	20.135093986
1	19414	49.588273808941	3.180081444
1	19428	49.605228821483	20.135093986
1	19519	49.744646214693	3.180081444
1	19540	49.761601227235	20.135093986
1	19768	50.540421413187	3.180081444
1	19771	50.557376425729	20.135093986
1	19970	51.000242934724	3.180081444
1	19985	51.017197947266	20.135093986
1	20096	51.187775133828	3.180081444
1	20099	51.20473014637	20.135093986
1	20221	51.503284351565	24.905216152
1	20224	51.505176469845	3.180081444
1	20459	52.028735281036	3.180081444
1	20462	52.045690293578	20.135093986
1	20595	52.372862150192	3.180081444
1	20604	52.389817162734	20.135093986
1	20898	53.115252333272	3.180081444
1	20910	53.124030641808	21.725134708
1	20966	53.314681732815	3.180081444
1	20970	53.327644030925	21.725134708
1	21114	53.703620423886	3.180081444
1	21122	53.707261343386	21.725134708
1	21361	54.349297744103	3.180081444
1	21364	54.366252756645	20.135093986
1	21531	54.813116997385	3.180081444
1	21540	54.830072009927	20.135093986
1	21715	55.113694432795	3.180081444
1	21718	55.130649445337	20.135093986
1	21830	55.270667870016	4.770122166
1	21833	55.273228947141	3.180081444
1	22086	55.876943106482	3.180081444
1	22092	55.88710253459	21.725134708
1	22269	56.652862589944	3.180081444
1	22281	56.669817602486	20.135093986
1	22444	57.436216793021	3.180081444
1	22460	57.448765645817	21.725134708
1	22805	58.008158618117	3.180081444
1	22817	58.025113630659	20.135093986
1	22954	58.565030609023	3.180081444
1	22963	58.581985621565	20.135093986
1	23196	59.133120760014	23.31517543
1	23198	59.133715899403	3.180081444
1	23408	59.633844456261	3.180081444
1	23413	59.642593531305	20.135093986
1	23701	60.603377159823	3.180081444
1	23716	60.620332172365	20.135093986
1	23969	61.403731594652	3.180081444
1	23972	61.420686607194	20.135093986
1	24198	61.885928300138	3.180081444
1	24204	61.88771520794	21.725134708
1	24338	62.338545544677	3.180081444
1	24343	62.344961401698	20.135093986
1	24469	62.778211460727	3.180081444
1	24476	62.795166473269	20.135093986
1	24589	63.194954075034	3.180081444
1	24594	63.203237394099	20.135093986
1	24685	63.554667037607	3.180081444
1	24688	63.571622050149	20.135093986
1	24840	63.84585796166	3.180081444
1	24854	63.862736289292	20.135093986
1	24902	63.946349335436	3.180081444
1	24905	63.963304347978	20.135093986
1	24970	64.103547737302	3.180081444
1	24975	64.120502749844	20.135093986
1	25351	65.042702285127	3.180081444
1	25356	65.046785744555	20.135093986
1	25731	65.966079067412	3.180081444
1	25734	65.983034079954	20.135093986
1	25900	66.402238975648	3.180081444
1	25912	66.41919398819	20.135093986
1	26220	67.126981038131	3.180081444
1	26226	67.12987793122	21.725134708
1	26388	67.532648981778	3.180081444
1	26391	67.54960399432	20.135093986
1	26675	68.418850128139	3.180081444
1	26678	68.435805140681	20.135093986
1	26977	69.342323816331	3.180081444
1	26983	69.344659545706	21.725134708
1	27250	70.221674738751	3.180081444
1	27265	70.238629751293	20.135093986
1	27355	70.696697317363	3.180081444
1	27358	70.713652329905	20.135093986
1	27714	71.585121481699	3.180081444
1	27717	71.602076494241	20.135093986
1	27857	71.993229615498	3.180081444
1	27860	72.01018462804	20.135093986
1	28037	72.529698702084	3.180081444
1	28041	72.546653714626	20.135093986
1	28363	73.325497750655	3.180081444
1	28366	73.342452763197	20.135093986
1	28703	74.155455164395	21.725134708
1	28706	74.157989875154	3.180081444
1	28780	74.404112025021	3.180081444
1	28789	74.421067037563	20.135093986
1	28970	74.936166822325	3.180081444
1	28973	74.953121834867	20.135093986
1	29054	75.135072071704	24.905216152
1	29060	75.136513274788	3.180081444
1	29205	75.521363943625	3.180081444
1	29209	75.521992175903	21.725134708
1	29538	76.282696343163	3.180081444
1	29549	76.299651355705	20.135093986
1	29806	76.914655185604	3.180081444
1	29809	76.931610198146	20.135093986
1	30186	77.801104145866	3.180081444
1	30202	77.818059158408	20.135093986
1	30536	78.762629980584	20.135093986
1	30578	78.803059735747	20.135093986
1	30688	79.047647223595	3.180081444
1	30695	79.063669348872	21.725134708
1	30746	79.1665022823	3.180081444
1	30749	79.183457294842	20.135093986
1	30959	79.70701505169	3.180081444
1	30968	79.723970064232	20.135093986
1	31310	80.660701322855	3.180081444
1	31317	80.677656335397	20.135093986
1	31432	81.075694886056	3.180081444
1	31455	81.092649898598	20.135093986
1	31792	81.648922948559	3.180081444
1	31796	81.66198012972	21.725134708
1	32184	82.6212082379	3.180081444
1	32199	82.638163250442	20.135093986
2	38	0.636740236194	3.180081444
2	52	0.647288060158	56.893200513
2	67	0.680835180589	38.348147249
2	212	1.128577377268	56.893200513
2	215	1.130568725173	3.180081444
2	245	1.184281844242	56.893200513
2	488	1.740006747742	55.303159791
2	491	1.741808832553	3.180081444
2	510	1.767860116639	56.893200513
2	571	2.257140259072	3.180081444
2	573	2.263576985353	55.303159791
2	583	2.283380079338	75.106253776
2	629	2.463587240455	3.180081444
2	643	2.489558916027	41.528228693
2	661	2.504923887847	56.893200513
2	742	2.692605197406	3.180081444
2	750	2.705398284528	39.938187971
2	756	2.720763256348	55.303159791
2	1001	3.48941551526	3.180081444
2	1003	3.503738444803	56.893200513
2	1035	3.543128634329	56.893200513
2	1259	4.203053783322	3.180081444
2	1287	4.256766902391	56.893200513
2	1289	4.266935054516	39.938187971
2	1399	4.586939298012	3.180081444
2	1439	4.640652417081	56.893200513
2	1454	4.655937934452	23.31517543
2	1544	4.874928380735	3.180081444
2	1594	4.914275049528	23.31517543
2	1598	4.919329547766	41.528228693
2	1817	5.394608076266	3.180081444
2	1824	5.39743721226	55.303159791
2	1836	5.415290357002	56.893200513
2	2157	6.24875849227	3.180081444
2	2159	6.259736589591	56.893200513
2	2193	6.302471611339	56.893200513
2	2349	6.615284671635	3.180081444
2	2389	6.642018610208	55.303159791
2	2404	6.661821704193	75.106253776
2	2546	7.185433715396	39.938187971
2	2548	7.186207919266	3.180081444
2	2550	7.200798687216	55.303159791
2	2880	7.930902397331	3.180081444
2	2910	7.9846155164	56.893200513
2	2932	8.001238528941	73.516213054
2	2951	8.254780223105	3.180081444
2	2961	8.289599055866	3.180081444
2	3001	8.308493342174	56.893200513
2	3202	8.869806934452	3.180081444
2	3228	8.923520053521	56.893200513
2	3248	8.940143066062	73.516213054
2	3316	9.326662099409	3.180081444
2	3371	9.372618614642	55.303159791
2	3374	9.380375218478	56.893200513
2	3561	10.049940531772	3.180081444
2	3563	10.057045386793	56.893200513
2	3603	10.103653650841	56.893200513
2	3636	10.167214412337	3.180081444
2	3666	10.220927531406	56.893200513
2	3675	10.237550543947	73.516213054
2	4002	10.861370596873	3.180081444
2	4029	10.911875082901	38.348147249
2	4031	10.915083715942	56.893200513
2	4253	11.548263543799	3.180081444
2	4279	11.601976662868	56.893200513
2	4287	11.618599675409	73.516213054
2	4326	11.738467741712	3.180081444
2	4336	11.773150076973	3.180081444
2	4376	11.792180860781	56.893200513
2	4640	12.481284910255	3.180081444
2	4642	12.482922583392	56.893200513
2	4648	12.488924917315	55.303159791
2	4905	13.093475580146	3.180081444
2	4931	13.147188699215	56.893200513
2	4937	13.163811711756	73.516213054
2	5345	14.071444941033	3.180081444
2	5347	14.081240513754	75.106253776
2	5387	14.125158060102	56.893200513
2	5560	14.48226145173	3.180081444
2	5586	14.535974570799	56.893200513
2	5605	14.55259758334	73.516213054
2	5646	14.796364985151	3.180081444
2	5660	14.828520062333	41.528228693
2	5664	14.843885034153	56.893200513
2	5819	15.378434502707	3.180081444
2	5847	15.403050696235	55.303159791
2	5873	15.42285379022	75.106253776
2	6035	15.64600820758	3.180081444
2	6086	15.691910074898	55.303159791
2	6092	15.699721326649	56.893200513
2	6139	15.798234453798	3.180081444
2	6169	15.851947572867	56.893200513
2	6201	16.020830909386	55.303159791
2	6246	16.178850742942	3.180081444
2	6278	16.249186874552	73.516213054
2	6295	16.269286931232	21.725134708
2	6313	16.30106159884	3.180081444
2	6323	16.302864956315	55.303159791
2	6342	16.336728148535	38.348147249
2	6494	16.8093887544	3.180081444
2	6520	16.863101873469	56.893200513
2	6526	16.87972488601	73.516213054
2	6559	16.927974658669	3.180081444
2	6561	16.93660444889	55.303159791
2	6593	16.981687777738	56.893200513
2	6670	17.315990088973	3.180081444
2	6696	17.369703208042	56.893200513
2	6714	17.386326220583	73.516213054
2	6921	18.201375680766	3.180081444
2	6930	18.223357539485	3.180081444
2	6973	18.255088799835	56.893200513
2	7034	18.529923161608	3.180081444
2	7088	18.569051435955	56.893200513
2	7103	18.583636280677	56.893200513
2	7293	19.012140080263	3.180081444
2	7309	19.047106318944	41.528228693
2	7311	19.062471290764	56.893200513
2	7385	19.231001378992	3.180081444
2	7411	19.284714498061	56.893200513
2	7417	19.301337510602	73.516213054
2	7456	19.495953234611	3.180081444
2	7482	19.54966635368	56.893200513
2	7488	19.566289366221	73.516213054
2	7758	20.032798980502	41.528228693
2	7763	20.035203890758	3.180081444
2	7769	20.047928681993	38.348147249
2	8169	21.000946635915	3.180081444
2	8182	21.029028406219	56.893200513
2	8208	21.054659754984	56.893200513
2	8485	21.980692257661	3.180081444
2	8498	22.014078461776	39.938187971
2	8502	22.029443433596	55.303159791
2	8506	22.344410513294	3.180081444
2	8532	22.398123632363	56.893200513
2	8540	22.405438084506	3.180081444
2	8904	23.208459711982	3.180081444
2	8930	23.262172831051	56.893200513
2	8936	23.278795843592	73.516213054
2	9047	23.479322834405	3.180081444
2	9087	23.533035953474	56.893200513
2	9110	23.540746161054	23.31517543
2	9373	24.355295197106	3.180081444
2	9411	24.409008316175	56.893200513
2	9422	24.420657384437	21.725134708
2	9580	24.574534066835	3.180081444
2	9582	24.585364856711	38.348147249
2	9624	24.628247185904	56.893200513
2	9683	24.75517679667	3.180081444
2	9698	24.77904880328	56.893200513
2	9721	24.808889915739	56.893200513
2	9872	25.356808704556	3.180081444
2	9898	25.410521823625	56.893200513
2	9904	25.427144836166	73.516213054
2	10060	25.692112888489	38.348147249
2	10064	25.692715037683	3.180081444
2	10073	25.709067901031	55.303159791
2	10408	26.502406000694	3.180081444
2	10410	26.507641881601	55.303159791
2	10420	26.527444975586	75.106253776
2	10628	26.936173520772	3.180081444
2	10687	26.989886639841	56.893200513
2	10693	26.993332656439	55.303159791
2	10887	27.555962174874	3.180081444
2	10913	27.609675293943	56.893200513
2	10919	27.626298306484	73.516213054
2	11246	28.26921543572	3.180081444
2	11248	28.272631405847	56.893200513
2	11274	28.322928554789	56.893200513
2	11479	29.020966308237	3.180081444
2	11500	29.069127156482	56.893200513
2	11527	29.119077743067	55.303159791
2	11756	29.693421259102	3.180081444
2	11782	29.747134378171	56.893200513
2	11788	29.763757390712	73.516213054
2	11906	30.204922367724	3.180081444
2	11957	30.251848316717	55.303159791
2	11963	30.258635486793	56.893200513
2	12226	31.038893809913	3.180081444
2	12253	31.092606928982	56.893200513
2	12255	31.109229941523	73.516213054
2	12316	31.168867973632	3.180081444
2	12318	31.169807657053	55.303159791
2	12333	31.202377758401	56.893200513
2	12437	31.435577065705	3.180081444
2	12463	31.489290184774	56.893200513
2	12469	31.505913197315	73.516213054
2	12508	31.625230499238	3.180081444
2	12534	31.678943618307	56.893200513
2	12542	31.695566630848	73.516213054
2	12685	32.133976658385	3.180081444
2	12693	32.143708337414	56.893200513
2	12721	32.180594053354	41.528228693
2	12760	32.248022118814	3.180081444
2	12787	32.301735237883	56.893200513
2	12793	32.318358250424	73.516213054
2	12911	32.547066939573	3.180081444
2	12919	32.560214095767	75.106253776
2	12940	32.600222359424	56.893200513
2	13153	33.203699176942	3.180081444
2	13179	33.257412296011	56.893200513
2	13198	33.274035308552	73.516213054
2	13479	34.008610171496	3.180081444
2	13517	34.062323290565	56.893200513
2	13528	34.078946303106	73.516213054
2	13803	34.744527408268	3.180081444
2	13834	34.798240527337	56.893200513
2	13865	34.9624175202	55.303159791
2	14183	35.716601941568	3.180081444
2	14185	35.727207370161	56.893200513
2	14204	35.747517551707	56.893200513
2	14303	36.06179514953	3.180081444
2	14305	36.061999711837	41.528228693
2	14307	36.077364683657	56.893200513
2	14657	36.835704576756	3.180081444
2	14675	36.846898337757	38.348147249
2	14681	36.858867126646	56.893200513
2	14852	37.611392954384	3.180081444
2	14878	37.665106073453	56.893200513
2	14884	37.681729085994	73.516213054
2	14936	37.775175756096	3.180081444
2	14951	37.809549498701	39.938187971
2	14957	37.824914470521	55.303159791
2	15061	38.250913490631	3.180081444
2	15089	38.3046266097	56.893200513
2	15093	38.321249622241	73.516213054
2	15207	38.84310989766	3.180081444
2	15233	38.896823016729	56.893200513
2	15239	38.91344602927	73.516213054
2	15350	39.187597390447	3.180081444
2	15376	39.241310509516	56.893200513
2	15395	39.257933522057	73.516213054
2	15529	39.566940133433	3.180081444
2	15555	39.620653252502	56.893200513
2	15561	39.637276265043	73.516213054
2	15949	40.44302682655	3.180081444
2	15951	40.447335300172	75.106253776
2	15957	40.455273712101	38.348147249
2	16265	41.151645057132	3.180081444
2	16277	41.171772303434	39.938187971
2	16281	41.187137275254	55.303159791
2	16285	41.332190146805	3.180081444
2	16293	41.354159509763	3.180081444
2	16335	41.385903265874	56.893200513
2	16500	41.797538237432	3.180081444
2	16538	41.851251356501	56.893200513
2	16549	41.862102833804	21.725134708
2	16753	42.416964459508	3.180081444
2	16779	42.470677578577	56.893200513
2	16785	42.487300591118	73.516213054
2	17150	43.383457742278	3.180081444
2	17176	43.437170861347	56.893200513
2	17182	43.453793873888	73.516213054
2	17344	43.688441292099	3.180081444
2	17357	43.710551156594	39.938187971
2	17361	43.725916128414	55.303159791
2	17618	44.670963412146	3.180081444
2	17644	44.724676531215	56.893200513
2	17650	44.741299543756	73.516213054
2	18013	45.598767942116	3.180081444
2	18039	45.652481061185	56.893200513
2	18059	45.669104073726	73.516213054
2	18194	46.095005316935	3.180081444
2	18224	46.148718436004	56.893200513
2	18233	46.165341448545	73.516213054
2	18299	46.249976001932	3.180081444
2	18325	46.303689121001	56.893200513
2	18332	46.320312133542	73.516213054
2	18444	46.826021937277	3.180081444
2	18470	46.879735056346	56.893200513
2	18478	46.891291743145	3.180081444
2	18642	47.349605991199	3.180081444
2	18669	47.385425521287	56.893200513
2	18683	47.403319110268	56.893200513
2	18860	47.879487845694	3.180081444
2	18862	47.883237883116	55.303159791
2	18868	47.887333161495	55.303159791
2	19270	48.852932172032	3.180081444
2	19299	48.912332345911	56.893200513
2	19319	49.256834967127	21.725134708
2	19537	49.753746461236	3.180081444
2	19558	49.786303141176	41.528228693
2	19580	49.79676929304	55.303159791
2	19621	49.959334896012	3.180081444
2	19623	49.960269494581	55.303159791
2	19655	50.003471654049	39.938187971
2	19797	50.590060140654	3.180081444
2	19799	50.592544491534	55.303159791
2	19809	50.612347585519	75.106253776
2	19995	51.032361808811	3.180081444
2	20023	51.052366013071	55.303159791
2	20049	51.072169107056	75.106253776
2	20280	51.58036102254	3.180081444
2	20310	51.634074141609	56.893200513
2	20326	51.65069715415	73.516213054
2	20388	51.784611625523	3.180081444
2	20414	51.838324744592	56.893200513
2	20432	51.854947757133	73.516213054
2	20734	52.655249622998	41.528228693
2	20736	52.656024051849	3.180081444
2	20738	52.659137575923	56.893200513
2	20962	53.309098977661	3.180081444
2	21017	53.36281209673	56.893200513
2	21023	53.366804811162	55.303159791
2	21176	53.773935204321	3.180081444
2	21216	53.82764832339	56.893200513
2	21228	53.838512798272	23.31517543
2	21482	54.737163229329	3.180081444
2	21509	54.772483217245	55.303159791
2	21517	54.78810784008	23.31517543
2	22005	55.595662404895	3.180081444
2	22031	55.633073893725	38.348147249
2	22033	55.649375523964	56.893200513
2	22135	56.08534818999	3.180081444
2	22148	56.101350008715	21.725134708
2	22158	56.112863819346	41.528228693
2	22354	56.991470354372	3.180081444
2	22384	57.045183473441	56.893200513
2	22386	57.047354449307	41.528228693
2	22425	57.430220592553	3.180081444
2	22482	57.470969653107	39.938187971
2	22488	57.475775100545	41.528228693
2	22853	58.14378654365	3.180081444
2	22879	58.197499662719	56.893200513
2	22885	58.21412267526	73.516213054
2	22926	58.514149855189	3.180081444
2	22956	58.567862974258	56.893200513
2	22965	58.584485986799	73.516213054
2	23324	59.451886703209	3.180081444
2	23350	59.505599822278	56.893200513
2	23356	59.522222834819	73.516213054
2	23592	60.402410801239	3.180081444
2	23600	60.420274256333	38.348147249
2	23604	60.437229268875	55.303159791
2	23920	61.332891748957	3.180081444
2	23947	61.36023701794	56.893200513
2	23963	61.382545079965	41.528228693
2	24129	61.706670571626	3.180081444
2	24137	61.722115510864	3.180081444
2	24147	61.726384696132	38.348147249
2	24227	61.912443651138	3.180081444
2	24238	61.922883273745	56.893200513
2	24246	61.940657757713	39.938187971
2	24306	62.237802045392	3.180081444
2	24318	62.258618489375	39.938187971
2	24322	62.273983461195	55.303159791
2	24540	62.913536636317	3.180081444
2	24566	62.967249755386	56.893200513
2	24572	62.983872767927	73.516213054
2	24611	63.33521881911	3.180081444
2	24637	63.388931938179	56.893200513
2	24657	63.40555495072	73.516213054
2	25013	64.222178746476	3.180081444
2	25040	64.275891865545	56.893200513
2	25057	64.292514878086	73.516213054
2	25230	64.516037132004	3.180081444
2	25256	64.569750251073	56.893200513
2	25262	64.586373263614	73.516213054
2	25460	65.271136472998	3.180081444
2	25494	65.312947169453	21.725134708
2	25498	65.322257827981	56.893200513
2	25695	65.747434761347	3.180081444
2	25721	65.801147880416	56.893200513
2	25727	65.817770892957	73.516213054
2	25840	66.216188345472	3.180081444
2	25866	66.269901464541	56.893200513
2	25872	66.286524477082	73.516213054
2	26166	66.977549467601	23.31517543
2	26180	66.994586015813	21.725134708
2	26182	66.995762520864	41.528228693
2	26536	67.910713838548	3.180081444
2	26563	67.954614370572	38.348147249
2	26565	67.964426957617	56.893200513
2	26723	68.490115563753	3.180081444
2	26725	68.490776300471	75.106253776
2	26738	68.523546409796	39.938187971
2	26932	69.244907860127	3.180081444
2	26957	69.282116179101	39.938187971
2	26959	69.297481150921	55.303159791
2	27166	70.038693340025	3.180081444
2	27174	70.044420686204	39.938187971
2	27194	70.059785658024	55.303159791
2	27465	70.918803023123	3.180081444
2	27487	70.951046597303	3.180081444
2	27519	70.972516142192	56.893200513
2	27595	71.176637886483	3.180081444
2	27603	71.189874563133	41.528228693
2	27609	71.205239534953	56.893200513
2	27678	71.363443661663	3.180081444
2	27704	71.417156780732	56.893200513
2	27710	71.433779793273	73.516213054
2	27788	71.794569403674	3.180081444
2	27814	71.848282522743	56.893200513
2	27835	71.860926662034	3.180081444
2	27961	72.177685367871	3.180081444
2	27963	72.187676636518	56.893200513
2	27993	72.23139848694	56.893200513
2	28242	73.0218608099	3.180081444
2	28248	73.034233303181	38.348147249
2	28256	73.051188315723	55.303159791
2	28577	73.859881006154	3.180081444
2	28603	73.913594125223	56.893200513
2	28609	73.930217137764	73.516213054
2	28829	74.614875146929	3.180081444
2	28854	74.650302793013	3.180081444
2	28862	74.659159358474	38.348147249
2	29111	75.184833427328	3.180081444
2	29113	75.188636353135	55.303159791
2	29123	75.20843944712	75.106253776
2	29367	75.719159241994	3.180081444
2	29369	75.719424635257	56.893200513
2	29399	75.772872361063	56.893200513
2	29768	76.718986960147	3.180081444
2	29770	76.722319377623	56.893200513
2	29796	76.772700079216	56.893200513
2	29868	77.261262276604	38.348147249
2	29872	77.262112229197	3.180081444
2	29874	77.278217289146	55.303159791
2	30061	77.554564042525	3.180081444
2	30089	77.598674913657	3.180081444
2	30093	77.608277161594	56.893200513
2	30303	78.110740703014	3.180081444
2	30305	78.111845759254	38.348147249
2	30317	78.128800771796	55.303159791
2	30573	78.797798046389	55.303159791
2	30580	78.803914974791	41.528228693
2	30582	78.804649776469	21.725134708
2	30602	78.871927888058	3.180081444
2	30628	78.925641007127	56.893200513
2	30634	78.942264019668	73.516213054
2	30699	79.068653198257	3.180081444
2	30714	79.098837414677	56.893200513
2	30736	79.122366317326	56.893200513
2	30889	79.539107165015	3.180081444
2	30913	79.57272218433	3.180081444
2	30944	79.592820284084	56.893200513
2	30996	79.851357966121	3.180081444
2	31022	79.90507108519	56.893200513
2	31028	79.921694097731	73.516213054
2	31344	80.712824401202	55.303159791
2	31351	80.714868705272	3.180081444
2	31355	80.732627495187	75.106253776
2	31424	81.04381286031	3.180081444
2	31457	81.097525979379	56.893200513
2	31485	81.11414899192	73.516213054
2	31528	81.258377478965	3.180081444
2	31530	81.264554348719	56.893200513
2	31560	81.312090598034	56.893200513
2	31788	81.643435076456	3.180081444
2	31843	81.697148195525	56.893200513
2	31849	81.701046026906	55.303159791
2	32000	82.171227379068	3.180081444
2	32014	82.182038712726	56.893200513
2	32032	82.218016243119	41.528228693
3	44	0.645667114784	3.180081444
3	46	0.645667114784	3.180081444
3	63	0.672240302	38.68014725
3	87	0.76380552246	20.135093986
3	330	1.548262816365	3.180081444
3	332	1.548262816365	3.180081444
3	347	1.582172841449	37.090106528
3	371	1.650869687578	3.180081444
3	379	1.666459375573	3.180081444
3	381	1.666459375573	3.180081444
3	406	1.68596550623	38.68014725
3	424	1.689473710117	4.770122166
3	692	2.549470306304	3.180081444
3	694	2.549470306304	3.180081444
3	729	2.670230218723	4.770122166
3	744	2.702550203085	37.090106528
3	812	3.022666053311	3.180081444
3	814	3.022666053311	3.180081444
3	830	3.040650253358	37.090106528
3	844	3.056576078395	37.090106528
3	907	3.13957687153	3.180081444
3	909	3.13957687153	3.180081444
3	940	3.162639749876	38.68014725
3	948	3.173486896614	37.090106528
3	1109	3.794817470317	3.180081444
3	1111	3.794817470317	3.180081444
3	1132	3.828727495401	37.090106528
3	1148	3.932228754136	3.180081444
3	1375	4.494907510467	3.180081444
3	1377	4.494907510467	3.180081444
3	1407	4.622107363817	38.348147249
3	1409	4.622439363818	38.68014725
3	1491	4.686747836601	3.180081444
3	1493	4.686747836601	3.180081444
3	1501	4.691426669142	37.090106528
3	1528	4.720657861685	37.090106528
3	1654	5.014710277785	3.180081444
3	1656	5.014710277785	3.180081444
3	1673	5.048620302869	37.090106528
3	1695	5.138802624098	4.770122166
3	2020	5.705406910577	3.180081444
3	2022	5.705406910577	3.180081444
3	2037	5.739316935661	37.090106528
3	2059	6.072344501177	4.770122166
3	2242	6.470744133787	3.180081444
3	2244	6.470744133787	3.180081444
3	2258	6.48403298799	3.180081444
3	2269	6.487213069434	6.360162888
3	2366	6.625395597667	38.68014725
3	2370	6.626653638388	39.938187971
3	2377	6.628476884705	3.180081444
3	2379	6.628476884705	3.180081444
3	2428	6.813023340097	3.180081444
3	2430	6.813023340097	3.180081444
3	2456	6.835885300428	38.68014725
3	2462	6.846933365181	37.090106528
3	2847	7.749389918149	3.180081444
3	2849	7.749389918149	3.180081444
3	2864	7.783299943233	37.090106528
3	2888	7.966070463136	38.348147249
3	3169	8.715359608573	3.180081444
3	3171	8.715359608573	3.180081444
3	3186	8.749269633657	37.090106528
3	3210	8.904975000257	38.348147249
3	3421	9.547777646268	3.180081444
3	3423	9.547777646268	3.180081444
3	3438	9.581687671352	37.090106528
3	3463	9.620421943723	4.770122166
3	3816	10.50825292205	3.180081444
3	3818	10.50825292205	3.180081444
3	3839	10.542162947134	37.090106528
3	3860	10.609037233922	37.090106528
3	4008	10.876707017096	3.180081444
3	4010	10.876707017096	3.180081444
3	4025	10.896870662679	38.68014725
3	4044	10.95622700481	4.770122166
3	4182	11.364983608132	3.180081444
3	4184	11.364983608132	3.180081444
3	4199	11.398893633216	37.090106528
3	4215	11.484271753161	3.180081444
3	4471	12.190558200749	3.180081444
3	4473	12.190558200749	3.180081444
3	4492	12.207640652522	4.770122166
3	4504	12.217771480163	3.180081444
3	4595	12.436801838968	3.180081444
3	4597	12.436801838968	3.180081444
3	4622	12.464709530129	38.68014725
3	4630	12.470711864052	37.090106528
3	4943	13.263388903253	3.180081444
3	4945	13.263388903253	3.180081444
3	4962	13.292416868895	3.180081444
3	4972	13.295596950339	6.360162888
3	5397	14.133611911955	3.180081444
3	5399	14.133611911955	3.180081444
3	5427	14.157703766191	38.68014725
3	5433	14.167521937039	37.090106528
3	5670	14.867584871362	3.180081444
3	5672	14.867584871362	3.180081444
3	5687	14.901494896446	37.090106528
3	5717	14.964658359338	20.135093986
3	5934	15.498503851333	3.180081444
3	5936	15.498503851333	3.180081444
3	5970	15.517465865147	4.770122166
3	5978	15.519056186139	37.090106528
3	6211	16.039916773002	3.180081444
3	6213	16.039916773002	3.180081444
3	6230	16.073826798086	37.090106528
3	6262	16.212743149016	20.135093986
3	6315	16.30156008273	3.180081444
3	6317	16.30156008273	3.180081444
3	6338	16.335470107814	37.090106528
3	6362	16.373267816746	20.135093986
3	6532	16.884481370543	3.180081444
3	6534	16.884481370543	3.180081444
3	6549	16.918391395627	37.090106528
3	6584	16.963142724474	38.348147249
3	6782	17.667022157275	3.180081444
3	6784	17.667022157275	3.180081444
3	6800	17.700932182359	37.090106528
3	6814	17.73016930339	3.180081444
3	6860	17.934094506154	3.180081444
3	6862	17.934094506154	3.180081444
3	6890	18.093562163668	4.770122166
3	6907	18.127472188752	38.68014725
3	7234	18.885242411038	38.68014725
3	7238	18.886728041294	3.180081444
3	7240	18.886728041294	3.180081444
3	7263	18.920638066378	37.090106528
3	7317	19.092506713002	3.180081444
3	7319	19.092506713002	3.180081444
3	7334	19.126416738086	37.090106528
3	7354	19.143391544048	4.770122166
3	7677	19.837680424914	3.180081444
3	7679	19.837680424914	3.180081444
3	7694	19.871590449998	37.090106528
3	7710	19.994450833253	3.180081444
3	7728	20.012760616188	3.180081444
3	7730	20.012760616188	3.180081444
3	7749	20.029950899059	38.68014725
3	7765	20.046670641272	37.090106528
3	7961	20.638789081295	3.180081444
3	7963	20.638789081295	3.180081444
3	7988	20.672699106379	37.090106528
3	8005	20.701234653857	37.090106528
3	8365	21.575365467603	3.180081444
3	8367	21.575365467603	3.180081444
3	8382	21.609275492687	37.090106528
3	8403	21.808502602306	37.090106528
3	8638	22.52260540207	3.180081444
3	8640	22.52260540207	3.180081444
3	8646	22.523814792032	38.68014725
3	8671	22.556515427154	37.090106528
3	8726	22.755932176091	3.180081444
3	8728	22.755932176091	3.180081444
3	8743	22.789842201175	37.090106528
3	8768	22.86576956888	4.770122166
3	8955	23.301692366502	20.135093986
3	8962	23.303282407224	21.725134708
3	8966	23.303584406899	3.180081444
3	8968	23.303584406899	3.180081444
3	9190	23.605469728496	3.180081444
3	9192	23.605469728496	3.180081444
3	9213	23.63937975358	37.090106528
3	9243	23.861879450613	20.135093986
3	9403	24.402112331173	3.180081444
3	9405	24.402112331173	3.180081444
3	9428	24.436022356257	37.090106528
3	9444	24.478694852093	3.180081444
3	9547	24.550196790906	3.180081444
3	9549	24.550196790906	3.180081444
3	9607	24.608113358564	4.770122166
3	9613	24.610034132641	38.68014725
3	9704	24.782448768361	3.180081444
3	9706	24.782448768361	3.180081444
3	9714	24.790676862476	38.68014725
3	9733	24.928943849982	4.770122166
3	10019	25.656944822684	3.180081444
3	10021	25.656944822684	3.180081444
3	10048	25.683283687451	4.770122166
3	10055	25.690854847768	37.090106528
3	10195	26.012111786312	3.180081444
3	10197	26.012111786312	3.180081444
3	10216	26.046021811396	37.090106528
3	10238	26.09748281962	4.770122166
3	10532	26.812937643474	3.180081444
3	10534	26.812937643474	3.180081444
3	10546	26.834968535586	37.090106528
3	10560	26.878798175511	3.180081444
3	10925	27.632753938392	3.180081444
3	10927	27.632753938392	3.180081444
3	10942	27.666663963476	37.090106528
3	10958	27.729072192103	3.180081444
3	11089	27.980546768836	38.68014725
3	11098	27.982590423363	3.180081444
3	11100	27.982590423363	3.180081444
3	11123	28.016500448447	37.090106528
3	11300	28.572015781586	3.180081444
3	11302	28.572015781586	3.180081444
3	11326	28.591791308865	38.68014725
3	11334	28.60592580667	37.090106528
3	11638	29.485655736948	3.180081444
3	11640	29.485655736948	3.180081444
3	11657	29.498065557449	3.180081444
3	11668	29.501245638893	6.360162888
3	11831	29.997980679364	3.180081444
3	11833	29.997980679364	3.180081444
3	11848	30.031890704448	37.090106528
3	11864	30.129951304246	3.180081444
3	12048	30.616156720884	3.180081444
3	12050	30.616156720884	3.180081444
3	12065	30.650066745968	37.090106528
3	12095	30.67636233847	20.135093986
3	12238	31.074061875718	38.348147249
3	12240	31.074393875719	38.68014725
3	12244	31.074747553772	3.180081444
3	12272	31.120325237841	4.770122166
3	12621	32.037832003065	3.180081444
3	12623	32.037832003065	3.180081444
3	12638	32.071742028149	37.090106528
3	12656	32.091585259067	4.770122166
3	13015	32.690850239132	3.180081444
3	13017	32.690850239132	3.180081444
3	13051	32.752035144644	4.770122166
3	13068	32.785945169728	38.68014725
3	13264	33.365735818284	3.180081444
3	13266	33.365735818284	3.180081444
3	13281	33.399645843368	37.090106528
3	13310	33.60986114471	37.090106528
3	13509	34.061989931787	3.180081444
3	13511	34.061989931787	3.180081444
3	13534	34.095899956871	37.090106528
3	13553	34.110012041246	4.770122166
3	13758	34.533385121283	39.938187971
3	13763	34.535361114961	3.180081444
3	13765	34.535361114961	3.180081444
3	13787	34.569271140045	37.090106528
3	14052	35.522303402309	3.180081444
3	14054	35.522303402309	3.180081444
3	14083	35.556213427393	37.090106528
3	14101	35.558238728245	20.135093986
3	14356	36.243094841229	3.180081444
3	14358	36.243094841229	3.180081444
3	14364	36.257650085058	37.090106528
3	14390	36.32383022544	4.770122166
3	14477	36.496018195093	38.68014725
3	14486	36.497762630765	3.180081444
3	14488	36.497762630765	3.180081444
3	14511	36.531672655849	37.090106528
3	14615	36.811730271952	3.180081444
3	14617	36.811730271952	3.180081444
3	14645	36.828192708739	4.770122166
3	14660	36.840654073383	38.68014725
3	14890	37.692290736946	3.180081444
3	14892	37.692290736946	3.180081444
3	14907	37.72620076203	37.090106528
3	14934	37.774381432896	4.770122166
3	15033	38.055805364928	3.180081444
3	15035	38.055805364928	3.180081444
3	15071	38.286081556436	38.348147249
3	15073	38.286413556437	38.68014725
3	15280	39.026820570255	3.180081444
3	15282	39.026820570255	3.180081444
3	15297	39.060730595339	37.090106528
3	15313	39.100358573022	3.180081444
3	15485	39.488362758212	3.180081444
3	15487	39.488362758212	3.180081444
3	15513	39.522272783296	37.090106528
3	15537	39.602108199238	38.348147249
3	15924	40.420105646296	3.180081444
3	15926	40.420105646296	3.180081444
3	15953	40.45401567138	37.090106528
3	15973	40.478194892355	38.348147249
3	16073	40.827633948532	3.180081444
3	16075	40.827633948532	3.180081444
3	16092	40.859612184601	3.180081444
3	16102	40.861543973616	37.090106528
3	16146	40.954845682556	3.180081444
3	16148	40.954845682556	3.180081444
3	16163	40.98875570764	37.090106528
3	16185	41.045408582103	4.770122166
3	16197	41.061941374933	3.180081444
3	16199	41.061941374933	3.180081444
3	16219	41.079318607187	38.68014725
3	16229	41.095851400017	37.090106528
3	16461	41.639424868069	3.180081444
3	16463	41.639424868069	3.180081444
3	16484	41.673334893153	37.090106528
3	16508	41.832706303237	38.348147249
3	16530	41.84355778054	3.180081444
3	16532	41.84355778054	3.180081444
3	16555	41.877467805624	37.090106528
3	16571	41.88769028627	3.180081444
3	16791	42.569300786011	3.180081444
3	16793	42.569300786011	3.180081444
3	16814	42.603210811095	37.090106528
3	16832	42.606107709294	20.135093986
3	16862	42.684485294066	3.180081444
3	16864	42.684485294066	3.180081444
3	16890	42.706857565001	4.770122166
3	16892	42.71839531915	37.090106528
3	17201	43.514739051804	20.135093986
3	17208	43.516329092526	21.725134708
3	17212	43.516796077766	3.180081444
3	17214	43.516796077766	3.180081444
3	17475	44.177761283402	3.180081444
3	17477	44.177761283402	3.180081444
3	17492	44.211671308486	37.090106528
3	17514	44.239393053434	4.770122166
3	17656	44.765003997601	3.180081444
3	17658	44.765003997601	3.180081444
3	17675	44.780105576364	4.770122166
3	17695	44.798914022685	37.090106528
3	17727	44.897434437602	3.180081444
3	17729	44.897434437602	3.180081444
3	17745	44.931344462686	37.090106528
3	17768	45.037400383016	4.770122166
3	17872	45.347655648902	3.180081444
3	17874	45.347655648902	3.180081444
3	17889	45.381565673986	37.090106528
3	17914	45.407426406981	4.770122166
3	18112	45.849410622079	3.180081444
3	18114	45.849410622079	3.180081444
3	18125	45.861744933745	38.68014725
3	18143	45.883320647163	37.090106528
3	18238	46.169862441649	3.180081444
3	18245	46.172069499526	3.180081444
3	18247	46.181165475104	37.090106528
3	18276	46.202922679687	20.135093986
3	18560	47.080325624371	3.180081444
3	18562	47.080325624371	3.180081444
3	18573	47.098125137071	37.090106528
3	18596	47.124486319723	4.770122166
3	18696	47.475514823432	3.180081444
3	18698	47.475514823432	3.180081444
3	18713	47.509424848516	37.090106528
3	18733	47.552817766039	4.770122166
3	18784	47.828366527412	38.68014725
3	18791	47.829624568133	39.938187971
3	18795	47.831114804769	3.180081444
3	18797	47.831114804769	3.180081444
3	19090	48.341982707545	3.180081444
3	19092	48.341982707545	3.180081444
3	19107	48.375892732629	37.090106528
3	19129	48.524931787417	4.770122166
3	19199	48.758686406143	3.180081444
3	19201	48.758686406143	3.180081444
3	19209	48.769351898925	3.180081444
3	19219	48.772531980369	6.360162888
3	19419	49.590434881487	3.180081444
3	19421	49.590434881487	3.180081444
3	19433	49.622183834025	37.090106528
3	19461	49.663680018688	20.135093986
3	19594	49.908146416234	3.180081444
3	19596	49.908146416234	3.180081444
3	19611	49.942056441318	37.090106528
3	19640	49.968303588244	4.770122166
3	19663	50.104450140801	3.180081444
3	19665	50.104450140801	3.180081444
3	19686	50.138360165885	37.090106528
3	19704	50.152733353356	20.135093986
3	19941	50.967785486114	3.180081444
3	19943	50.967785486114	3.180081444
3	19949	50.979349695877	38.68014725
3	19976	51.001695511198	37.090106528
3	20424	51.843641823158	3.180081444
3	20426	51.843641823158	3.180081444
3	20443	51.877551848242	37.090106528
3	20468	52.049225833128	3.180081444
3	20470	52.049225833128	3.180081444
3	20476	52.06264530612	37.090106528
3	20499	52.147183569867	4.770122166
3	20640	52.512639302552	3.180081444
3	20642	52.512639302552	3.180081444
3	20657	52.546549327636	37.090106528
3	20679	52.607014497576	4.770122166
3	20929	53.187907514117	3.180081444
3	20931	53.187907514117	3.180081444
3	20946	53.221817539201	37.090106528
3	20977	53.344267043466	38.348147249
3	21073	53.652439563606	3.180081444
3	21075	53.652439563606	3.180081444
3	21091	53.68634958869	37.090106528
3	21100	53.688716290122	3.180081444
3	21408	54.415010569959	20.135093986
3	21412	54.415968382197	3.180081444
3	21437	54.450439953527	4.770122166
3	21450	54.482759937889	37.090106528
3	21560	54.844558270347	3.180081444
3	21562	54.844558270347	3.180081444
3	21568	54.847027022469	37.090106528
3	21592	54.878468295431	37.090106528
3	21657	55.021338104551	3.180081444
3	21659	55.021338104551	3.180081444
3	21687	55.044231905866	38.68014725
3	21693	55.055248129635	37.090106528
3	21907	55.35937891926	4.770122166
3	21913	55.359873835045	3.180081444
3	21915	55.359873835045	3.180081444
3	21941	55.393288944344	38.68014725
3	22010	55.59790582792	3.180081444
3	22012	55.59790582792	3.180081444
3	22027	55.631162470701	38.68014725
3	22051	55.811577607404	20.135093986
3	22182	56.173316510558	3.180081444
3	22184	56.173316510558	3.180081444
3	22201	56.207226535642	37.090106528
3	22222	56.210452293397	4.770122166
3	22250	56.626628414542	3.180081444
3	22252	56.626628414542	3.180081444
3	22271	56.660538439626	37.090106528
3	22290	56.673479162574	4.770122166
3	22533	57.615242295201	3.180081444
3	22535	57.615242295201	3.180081444
3	22552	57.643069220007	3.180081444
3	22564	57.649152320285	37.090106528
3	22643	57.75736801366	3.180081444
3	22645	57.75736801366	3.180081444
3	22693	57.785326939014	38.68014725
3	22697	57.785407830823	4.770122166
3	22748	57.930600651378	3.180081444
3	22750	57.930600651378	3.180081444
3	22765	57.964510676462	37.090106528
3	22795	58.003319751254	20.135093986
3	23044	58.678258789984	3.180081444
3	23054	58.711434665823	37.090106528
3	23074	58.957213846337	3.180081444
3	23086	58.960393927781	6.360162888
3	23179	59.112985666028	3.180081444
3	23181	59.112985666028	3.180081444
3	23200	59.146895691112	37.090106528
3	23213	59.167625924487	37.090106528
3	23398	59.625638518763	3.180081444
3	23400	59.625638518763	3.180081444
3	23416	59.659548543847	37.090106528
3	23430	59.682622404326	3.180081444
3	23505	60.064705659101	3.180081444
3	23507	60.064705659101	3.180081444
3	23522	60.098615684185	37.090106528
3	23544	60.276567977316	4.770122166
3	23577	60.385106190528	3.180081444
3	23579	60.385106190528	3.180081444
3	23594	60.419016215612	37.090106528
3	23608	60.495314013236	3.180081444
3	23728	60.634549229477	3.180081444
3	23730	60.634549229477	3.180081444
3	23738	60.637287184907	37.090106528
3	23763	60.655335695568	20.135093986
3	24008	61.494360695082	3.180081444
3	24010	61.494360695082	3.180081444
3	24023	61.512020096113	3.180081444
3	24037	61.515200177557	6.360162888
3	24118	61.691216630327	3.180081444
3	24120	61.691216630327	3.180081444
3	24143	61.725126655411	37.090106528
3	24159	61.739070523406	20.135093986
3	24328	62.328006389156	3.180081444
3	24330	62.328006389156	3.180081444
3	24357	62.359443948583	4.770122166
3	24359	62.36191641424	37.090106528
3	24478	62.795479006414	3.180081444
3	24480	62.795479006414	3.180081444
3	24494	62.810065281157	4.770122166
3	24501	62.812121485811	37.090106528
3	24794	63.703267490841	3.180081444
3	24796	63.703267490841	3.180081444
3	24813	63.737177515925	37.090106528
3	24842	63.847371317472	4.770122166
3	25049	64.277484192118	3.180081444
3	25051	64.277484192118	3.180081444
3	25068	64.311394217202	37.090106528
3	25084	64.345378139172	3.180081444
3	25375	65.149988064613	3.180081444
3	25377	65.149988064613	3.180081444
3	25390	65.167982175038	3.180081444
3	25404	65.171162256482	6.360162888
3	25474	65.294402116189	3.180081444
3	25476	65.294402116189	3.180081444
3	25483	65.304044774718	38.68014725
3	25500	65.328312141273	37.090106528
3	25569	65.550058330341	3.180081444
3	25571	65.550058330341	3.180081444
3	25596	65.562866872878	4.770122166
3	25603	65.567081949544	38.68014725
3	25807	66.075887009945	3.180081444
3	25809	66.075887009945	3.180081444
3	25824	66.109797035029	37.090106528
3	25848	66.251356411277	38.348147249
3	26157	66.976040962549	3.180081444
3	26159	66.976040962549	3.180081444
3	26170	66.992914439421	38.68014725
3	26186	67.009950987633	37.090106528
3	26542	67.919446304767	3.180081444
3	26544	67.919446304767	3.180081444
3	26559	67.946213904354	38.68014725
3	26578	68.103490035798	4.770122166
3	26646	68.313088971447	3.180081444
3	26648	68.313088971447	3.180081444
3	26680	68.452760153223	37.090106528
3	26694	68.454350193945	38.68014725
3	26858	68.802858678043	3.180081444
3	26860	68.802858678043	3.180081444
3	26875	68.836768703127	37.090106528
3	26891	69.01934569974	3.180081444
3	27073	69.618890007237	3.180081444
3	27075	69.618890007237	3.180081444
3	27090	69.652800032321	37.090106528
3	27106	69.926612439915	3.180081444
3	27256	70.229951411184	3.180081444
3	27258	70.229951411184	3.180081444
3	27270	70.255584763835	37.090106528
3	27303	70.556218902478	21.725134708
3	27538	71.059706162639	3.180081444
3	27540	71.059706162639	3.180081444
3	27555	71.093616187723	37.090106528
3	27571	71.151526415884	3.180081444
3	27621	71.210895698821	3.180081444
3	27623	71.210895698821	3.180081444
3	27629	71.212137952289	38.68014725
3	27651	71.248949908096	4.770122166
3	27896	72.088019280299	3.180081444
3	27898	72.088019280299	3.180081444
3	27913	72.121929305383	37.090106528
3	27923	72.133963517449	3.180081444
3	28223	72.999065237376	3.180081444
3	28225	72.999065237376	3.180081444
3	28244	73.03297526246	37.090106528
3	28264	73.057028875705	38.348147249
3	28468	73.527095441241	3.180081444
3	28470	73.527095441241	3.180081444
3	28491	73.561005466325	37.090106528
3	28539	73.734530320414	3.180081444
3	28725	74.262234477606	3.180081444
3	28727	74.262234477606	3.180081444
3	28742	74.29614450269	37.090106528
3	28770	74.392982873691	4.770122166
3	28835	74.623991292669	3.180081444
3	28837	74.623991292669	3.180081444
3	28856	74.650375212735	38.68014725
3	28874	74.667257805555	20.135093986
3	29157	75.49223672878	3.180081444
3	29159	75.49223672878	3.180081444
3	29167	75.503447122639	3.180081444
3	29177	75.506627204083	6.360162888
3	29505	76.249081606348	3.180081444
3	29507	76.249081606348	3.180081444
3	29513	76.256892584087	38.68014725
3	29540	76.282991631432	37.090106528
3	29696	76.622837807517	3.180081444
3	29698	76.622837807517	3.180081444
3	29719	76.656747832601	37.090106528
3	29749	76.685561271096	20.135093986
3	29845	77.226094210799	3.180081444
3	29847	77.226094210799	3.180081444
3	29863	77.260004235883	37.090106528
3	29886	77.297280295002	38.348147249
3	30280	78.076677693449	3.180081444
3	30282	78.076677693449	3.180081444
3	30299	78.110587718533	37.090106528
3	30313	78.128265930525	3.180081444
3	30565	78.786104723205	3.180081444
3	30567	78.786104723205	3.180081444
3	30586	78.820014748289	37.090106528
3	30610	78.907095953863	38.348147249
3	30856	79.410192483314	3.180081444
3	30858	79.410192483314	3.180081444
3	30873	79.444102508398	37.090106528
3	30903	79.557747601064	4.770122166
3	31070	80.188108591642	3.180081444
3	31072	80.188108591642	3.180081444
3	31095	80.216197505685	4.770122166
3	31101	80.222018616726	37.090106528
3	31177	80.454922321928	3.180081444
3	31179	80.454922321928	3.180081444
3	31216	80.516515825879	4.770122166
3	31220	80.52432350784	3.180081444
3	31391	80.979233909538	3.180081444
3	31393	80.979233909538	3.180081444
3	31408	81.013143934622	37.090106528
3	31436	81.078980926115	38.348147249
3	31570	81.318006901536	3.180081444
3	31572	81.318006901536	3.180081444
3	31589	81.35191692662	37.090106528
3	31619	81.390491353503	20.135093986
3	31885	81.982042731065	3.180081444
3	31887	81.982042731065	3.180081444
3	31893	81.985405965908	37.090106528
3	31916	82.015952756149	37.090106528
3	31934	82.094200564059	3.180081444
3	31936	82.094200564059	3.180081444
3	31953	82.128110589143	37.090106528
3	31975	82.145280606199	20.135093986
3	32190	82.62957814245	3.180081444
3	32192	82.62957814245	3.180081444
3	32204	82.655118262984	37.090106528
3	32225	82.671721576834	4.770122166
4	79	0.76380552246	20.135093986
4	96	0.780760535002	37.090106528
4	98	0.780760535002	37.090106528
4	101	0.783608616445	39.938187971
4	458	1.721762535364	58.483241235
4	465	1.723383735201	38.68014725
4	471	1.731102010112	20.135093986
4	494	1.743186829186	58.483241235
4	684	2.536913405508	40.270187972
4	700	2.550344717566	20.135093986
4	705	2.556716499493	60.073281957
4	709	2.566425318846	20.135093986
4	868	3.120008212927	20.135093986
4	900	3.136963225469	37.090106528
4	902	3.136963225469	37.090106528
4	916	3.139811306912	39.938187971
4	1085	3.775880163692	20.135093986
4	1102	3.792835176234	37.090106528
4	1104	3.792835176234	37.090106528
4	1118	3.795683257677	39.938187971
4	1385	4.50374823957	20.135093986
4	1388	4.511862523009	20.135093986
4	1392	4.523551333555	39.938187971
4	1401	4.603894310554	20.135093986
4	1905	5.476777067481	55.635159792
4	1907	5.476777067481	55.635159792
4	1913	5.493284688231	20.135093986
4	1932	5.510239700773	37.090106528
4	2251	6.471093579165	60.073281957
4	2254	6.472098206931	20.135093986
4	2271	6.487699146329	20.135093986
4	2275	6.491901300916	39.938187971
4	2506	6.961889909008	37.090106528
4	2508	6.961889909008	37.090106528
4	2511	6.963914139661	38.348147249
4	2530	7.165630621411	20.135093986
4	2596	7.331646955914	20.135093986
4	2613	7.348601968456	37.090106528
4	2615	7.348601968456	37.090106528
4	2618	7.351450049899	39.938187971
4	2747	7.584678389824	20.135093986
4	2749	7.586268430546	21.725134708
4	2754	7.59372707628	60.073281957
4	2759	7.596519183034	20.135093986
4	2985	8.306554068408	20.135093986
4	3003	8.308493342174	56.893200513
4	3005	8.308825342175	57.225200514
4	3008	8.32350908095	37.090106528
4	3119	8.624282548539	37.090106528
4	3121	8.624282548539	37.090106528
4	3125	8.626132252369	38.348147249
4	3143	8.644948070748	20.135093986
4	3390	9.469095335497	20.135093986
4	3407	9.486050348039	37.090106528
4	3409	9.486050348039	37.090106528
4	3412	9.488898429482	39.938187971
4	3534	10.020287280266	20.135093986
4	3551	10.037242292808	37.090106528
4	3553	10.037242292808	37.090106528
4	3556	10.040090374251	39.938187971
4	3898	10.666041175455	20.135093986
4	3915	10.682996187997	37.090106528
4	3917	10.682996187997	37.090106528
4	3922	10.68584426944	39.938187971
4	4114	11.297826662117	20.135093986
4	4145	11.314781674659	37.090106528
4	4147	11.314781674659	37.090106528
4	4150	11.317629756102	39.938187971
4	4360	11.790105089515	20.135093986
4	4378	11.792180860781	56.893200513
4	4380	11.792512860782	57.225200514
4	4383	11.807060102057	37.090106528
4	4731	12.789067392091	20.135093986
4	4748	12.806022404633	37.090106528
4	4750	12.806022404633	37.090106528
4	4753	12.808870486076	39.938187971
4	4803	12.951317683298	20.135093986
4	4820	12.96827269584	37.090106528
4	4822	12.96827269584	37.090106528
4	4825	12.971120777283	39.938187971
4	5041	13.440049648784	40.270187972
4	5054	13.45950609552	20.135093986
4	5067	13.459852742769	60.073281957
4	5075	13.476461108062	37.090106528
4	5461	14.216497601073	20.135093986
4	5478	14.233452613615	37.090106528
4	5480	14.233452613615	37.090106528
4	5483	14.236300695058	39.938187971
4	5525	14.345152632606	20.135093986
4	5538	14.346014621665	38.348147249
4	5548	14.362107645148	37.090106528
4	5550	14.362107645148	37.090106528
4	5709	14.964658359338	20.135093986
4	5730	14.98161337188	37.090106528
4	5732	14.98161337188	37.090106528
4	5735	14.984461453323	39.938187971
4	6110	15.721768182998	20.135093986
4	6127	15.73872319554	37.090106528
4	6129	15.73872319554	37.090106528
4	6132	15.741571276983	39.938187971
4	6250	16.195805755484	20.135093986
4	6271	16.229698161558	37.090106528
4	6273	16.229698161558	37.090106528
4	6291	16.26769689051	20.135093986
4	6354	16.373267816746	20.135093986
4	6372	16.390222829288	37.090106528
4	6374	16.390222829288	37.090106528
4	6382	16.393070910731	39.938187971
4	6649	17.260983523603	20.135093986
4	6652	17.262573564325	21.725134708
4	6661	17.280271977995	20.135093986
4	6665	17.30007507198	39.938187971
4	6870	17.946355642046	20.135093986
4	6873	17.951049518696	20.135093986
4	6877	17.966158736031	39.938187971
4	6896	18.108927135488	20.135093986
4	6954	18.240312552027	20.135093986
4	6971	18.242510038098	20.135093986
4	6976	18.257267564569	37.090106528
4	6978	18.257267564569	37.090106528
4	7038	18.532293329428	20.135093986
4	7054	18.54687817415	20.135093986
4	7059	18.54924834197	37.090106528
4	7061	18.54924834197	37.090106528
4	7192	18.80889067831	20.135093986
4	7196	18.819016400276	20.135093986
4	7202	18.838819494261	39.938187971
4	7219	18.866697357774	20.135093986
4	7427	19.447122311074	20.135093986
4	7444	19.464077323616	37.090106528
4	7446	19.464077323616	37.090106528
4	7449	19.466925405059	39.938187971
4	7572	19.677485297358	20.135093986
4	7589	19.6944403099	37.090106528
4	7591	19.6944403099	37.090106528
4	7594	19.697288391343	39.938187971
4	7825	20.466278024547	20.135093986
4	7842	20.483233037089	37.090106528
4	7844	20.483233037089	37.090106528
4	7847	20.486081118532	39.938187971
4	8131	20.829210802185	20.135093986
4	8133	20.834710560476	20.135093986
4	8135	20.836300601198	21.725134708
4	8139	20.84901389617	39.938187971
4	8297	21.456979955145	20.135093986
4	8314	21.473934967687	37.090106528
4	8316	21.473934967687	37.090106528
4	8319	21.47678304913	39.938187971
4	8548	22.422393097048	20.135093986
4	8565	22.43934810959	37.090106528
4	8567	22.43934810959	37.090106528
4	8570	22.442196191033	39.938187971
4	8838	23.078482119827	20.135093986
4	8855	23.095437132369	37.090106528
4	8857	23.095437132369	37.090106528
4	8860	23.098285213812	39.938187971
4	8947	23.301692366502	20.135093986
4	8975	23.318647379044	37.090106528
4	8977	23.318647379044	37.090106528
4	8980	23.320539419441	20.135093986
4	9235	23.861879450613	20.135093986
4	9252	23.878834463155	37.090106528
4	9254	23.878834463155	37.090106528
4	9257	23.881682544598	39.938187971
4	9344	24.261710091256	20.135093986
4	9361	24.278665103798	37.090106528
4	9363	24.278665103798	37.090106528
4	9366	24.281513185241	39.938187971
4	9558	24.553131808751	60.073281957
4	9568	24.559759141849	58.483241235
4	9572	24.567151803448	20.135093986
4	9576	24.570720818657	20.135093986
4	9665	24.742290696753	20.135093986
4	9686	24.759245709295	37.090106528
4	9688	24.759245709295	37.090106528
4	9691	24.762093790738	39.938187971
4	9770	25.22077621235	20.135093986
4	9801	25.237731224892	37.090106528
4	9803	25.237731224892	37.090106528
4	9806	25.240579306335	39.938187971
4	9988	25.564071325557	20.135093986
4	10005	25.581026338099	37.090106528
4	10007	25.581026338099	37.090106528
4	10010	25.583874419542	39.938187971
4	10350	26.290134227201	20.135093986
4	10367	26.307089239743	37.090106528
4	10369	26.307089239743	37.090106528
4	10372	26.309937321186	39.938187971
4	10602	26.912514593583	20.135093986
4	10604	26.914104634305	21.725134708
4	10610	26.915888282039	40.270187972
4	10616	26.91897390028	20.135093986
4	10785	27.295102990577	20.135093986
4	10802	27.312058003119	37.090106528
4	10804	27.312058003119	37.090106528
4	10807	27.314906084562	39.938187971
4	10988	27.766162298631	40.270187972
4	10996	27.782465186175	20.135093986
4	11015	27.785965392616	60.073281957
4	11019	27.799420198717	37.090106528
4	11211	28.225572469598	55.635159792
4	11213	28.225572469598	55.635159792
4	11217	28.23587329932	20.135093986
4	11236	28.252828311862	37.090106528
4	11362	28.748616860173	20.135093986
4	11379	28.765571872715	37.090106528
4	11381	28.765571872715	37.090106528
4	11384	28.768419954158	39.938187971
4	11618	29.469639378315	20.135093986
4	11647	29.486594390857	37.090106528
4	11649	29.486594390857	37.090106528
4	11652	29.4894424723	39.938187971
4	11981	30.432889320952	20.135093986
4	11999	30.449844333494	37.090106528
4	12001	30.449844333494	37.090106528
4	12006	30.452692414937	39.938187971
4	12082	30.671459880675	58.483241235
4	12087	30.67636233847	20.135093986
4	12104	30.693317351012	37.090106528
4	12106	30.693317351012	37.090106528
4	12159	30.832803992781	20.135093986
4	12176	30.849759005323	37.090106528
4	12178	30.849759005323	37.090106528
4	12181	30.852607086766	39.938187971
4	12291	31.152852644511	38.348147249
4	12298	31.165619651874	20.135093986
4	12321	31.182574664416	37.090106528
4	12323	31.182574664416	37.090106528
4	12398	31.271920979496	40.270187972
4	12402	31.280315306171	20.135093986
4	12421	31.291724073481	60.073281957
4	12425	31.297270318713	37.090106528
4	12734	32.21667757823	20.135093986
4	12750	32.233632590772	37.090106528
4	12752	32.233632590772	37.090106528
4	12755	32.236480672215	39.938187971
4	12803	32.377944246813	20.135093986
4	12820	32.394899259355	37.090106528
4	12822	32.394899259355	37.090106528
4	12825	32.397747340798	39.938187971
4	13026	32.695563948779	58.483241235
4	13031	32.705816318717	20.135093986
4	13034	32.707805251674	20.135093986
4	13038	32.725619412702	39.938187971
4	13088	32.952475299936	20.135093986
4	13105	32.969430312478	37.090106528
4	13107	32.969430312478	37.090106528
4	13110	32.972278393921	39.938187971
4	13423	33.932576050396	38.348147249
4	13442	33.942944097233	20.135093986
4	13460	33.949863062939	55.635159792
4	13462	33.949863062939	55.635159792
4	13630	34.301290464884	20.135093986
4	13661	34.318245477426	37.090106528
4	13663	34.318245477426	37.090106528
4	13666	34.321093558869	39.938187971
4	13919	35.233760689472	20.135093986
4	13936	35.250715702014	37.090106528
4	13938	35.250715702014	37.090106528
4	13941	35.253563783457	39.938187971
4	14068	35.539258414851	20.135093986
4	14091	35.557803468115	38.68014725
4	14093	35.558238728245	20.135093986
4	14112	35.575193740787	37.090106528
4	14143	35.692039304356	21.725134708
4	14163	35.71058435762	40.270187972
4	14165	35.71075944518	20.135093986
4	14188	35.727714457722	37.090106528
4	14562	36.590221655883	55.635159792
4	14564	36.590221655883	55.635159792
4	14568	36.604307637916	20.135093986
4	14587	36.621262650458	37.090106528
4	14813	37.532645133849	60.073281957
4	14823	37.552632880274	20.135093986
4	14840	37.569587892816	37.090106528
4	14842	37.569587892816	37.090106528
4	15024	38.045410690517	38.68014725
4	15046	38.065213784502	58.483241235
4	15050	38.07276037747	20.135093986
4	15053	38.07286310666	38.348147249
4	15249	38.965119689906	20.135093986
4	15266	38.982074702448	37.090106528
4	15268	38.982074702448	37.090106528
4	15271	38.984922783891	39.938187971
4	15465	39.475019421678	20.135093986
4	15494	39.49197443422	37.090106528
4	15496	39.49197443422	37.090106528
4	15499	39.494822515663	39.938187971
4	15674	39.859714226857	60.073281957
4	15681	39.875176142662	20.135093986
4	15698	39.892131155204	37.090106528
4	15700	39.892131155204	37.090106528
4	15772	40.049996805856	38.68014725
4	15785	40.069341239513	20.135093986
4	15798	40.069799899841	58.483241235
4	15806	40.086296252055	37.090106528
4	16055	40.781804273597	20.135093986
4	16060	40.797539527245	20.135093986
4	16064	40.801607367582	39.938187971
4	16082	40.844588961074	20.135093986
4	16319	41.371114522305	20.135093986
4	16337	41.385903265874	56.893200513
4	16339	41.386235265875	57.225200514
4	16342	41.388069534847	37.090106528
4	16376	41.492996400867	20.135093986
4	16378	41.496184720998	20.135093986
4	16380	41.49777476172	21.725134708
4	16384	41.512799494852	39.938187971
4	16586	41.898860940331	58.483241235
4	16593	41.901346284889	20.135093986
4	16597	41.904645298812	20.135093986
4	16599	41.906235339534	21.725134708
4	16801	42.586255798553	20.135093986
4	16822	42.604800851817	38.68014725
4	16824	42.606107709294	20.135093986
4	16843	42.623062721836	37.090106528
4	17121	43.332941895018	20.135093986
4	17138	43.34989690756	37.090106528
4	17140	43.34989690756	37.090106528
4	17143	43.352744989003	39.938187971
4	17193	43.514739051804	20.135093986
4	17235	43.531694064346	37.090106528
4	17237	43.531694064346	37.090106528
4	17240	43.533751090308	20.135093986
4	17411	43.984010455448	20.135093986
4	17431	44.00096546799	37.090106528
4	17433	44.00096546799	37.090106528
4	17436	44.003813549433	39.938187971
4	17589	44.536459142755	20.135093986
4	17606	44.553414155297	37.090106528
4	17608	44.553414155297	37.090106528
4	17611	44.55626223674	39.938187971
4	17984	45.507916915923	20.135093986
4	18001	45.524871928465	37.090106528
4	18003	45.524871928465	37.090106528
4	18006	45.527720009908	39.938187971
4	18259	46.186817454191	20.135093986
4	18268	46.202922679687	20.135093986
4	18287	46.219877692229	37.090106528
4	18289	46.219877692229	37.090106528
4	18486	46.908246755687	20.135093986
4	18503	46.925201768229	37.090106528
4	18505	46.925201768229	37.090106528
4	18508	46.928049849672	39.938187971
4	18649	47.356575726063	38.348147249
4	18653	47.365622427302	37.090106528
4	18655	47.365622427302	37.090106528
4	18657	47.366561003741	20.135093986
4	18914	47.995191854326	20.135093986
4	18931	48.012146866868	37.090106528
4	18933	48.012146866868	37.090106528
4	18936	48.014994948311	39.938187971
4	19005	48.171182393994	60.073281957
4	19012	48.174517798084	40.270187972
4	19018	48.182315411343	20.135093986
4	19037	48.194320892069	60.073281957
4	19274	48.869887184574	20.135093986
4	19295	48.892529251926	37.090106528
4	19297	48.892529251926	37.090106528
4	19315	49.255244926405	20.135093986
4	19453	49.663680018688	20.135093986
4	19484	49.68063503123	37.090106528
4	19486	49.68063503123	37.090106528
4	19489	49.683483112673	39.938187971
4	19692	50.139950206607	38.68014725
4	19696	50.152733353356	20.135093986
4	19715	50.159753300592	58.483241235
4	19719	50.169688365898	37.090106528
4	20059	51.08607492788	56.893200513
4	20061	51.086406927881	57.225200514
4	20065	51.094982224696	20.135093986
4	20084	51.111937237238	37.090106528
4	20359	51.717955959884	20.135093986
4	20376	51.734910972426	37.090106528
4	20378	51.734910972426	37.090106528
4	20381	51.737759053869	39.938187971
4	20524	52.182683635673	40.270187972
4	20530	52.199291679629	20.135093986
4	20549	52.202486729658	60.073281957
4	20553	52.216246692171	37.090106528
4	20839	52.90353681484	20.135093986
4	20842	52.917874851539	20.135093986
4	20846	52.923339908825	39.938187971
4	20865	53.081624500816	20.135093986
4	21155	53.732909181523	20.135093986
4	21158	53.738788489691	38.348147249
4	21165	53.743702876584	20.135093986
4	21171	53.763505970569	39.938187971
4	21396	54.401752822451	55.635159792
4	21398	54.401752822451	55.635159792
4	21406	54.415010569959	20.135093986
4	21420	54.431965582501	37.090106528
4	21614	54.986776039602	20.135093986
4	21631	55.003731052144	37.090106528
4	21633	55.003731052144	37.090106528
4	21637	55.006579133587	39.938187971
4	21840	55.286032841836	20.135093986
4	21857	55.302987854378	37.090106528
4	21860	55.305835935821	39.938187971
4	21868	55.308397012946	38.348147249
4	21975	55.5319410826	20.135093986
4	21992	55.548896095142	37.090106528
4	21994	55.548896095142	37.090106528
4	21997	55.551744176585	39.938187971
4	22043	55.811577607404	20.135093986
4	22060	55.828532619946	37.090106528
4	22062	55.828532619946	37.090106528
4	22065	55.831380701389	39.938187971
4	22210	56.208816576364	38.68014725
4	22231	56.225817265217	20.135093986
4	22233	56.226073873338	20.135093986
4	22236	56.228619670349	58.483241235
4	22325	56.947780172053	20.135093986
4	22342	56.964735184595	37.090106528
4	22344	56.964735184595	37.090106528
4	22347	56.967583266038	39.938187971
4	22502	57.498737023507	20.135093986
4	22519	57.515692036049	37.090106528
4	22521	57.515692036049	37.090106528
4	22524	57.518540117492	39.938187971
4	22609	57.742597781161	20.135093986
4	22652	57.759552793703	37.090106528
4	22654	57.759552793703	37.090106528
4	22657	57.762400875146	39.938187971
4	22778	57.985903811169	58.483241235
4	22787	58.003319751254	20.135093986
4	22808	58.020274763796	37.090106528
4	22810	58.020274763796	37.090106528
4	23090	58.973070723346	20.135093986
4	23092	58.974168858879	20.135093986
4	23094	58.975758899601	21.725134708
4	23099	58.992873817331	39.938187971
4	23148	59.074315742745	20.135093986
4	23165	59.091270755287	37.090106528
4	23167	59.091270755287	37.090106528
4	23170	59.09411883673	39.938187971
4	23474	59.947215464028	20.135093986
4	23491	59.96417047657	37.090106528
4	23493	59.96417047657	37.090106528
4	23496	59.967018558013	39.938187971
4	23745	60.638545225628	38.348147249
4	23751	60.651504242019	20.135093986
4	23755	60.655335695568	20.135093986
4	23776	60.67229070811	37.090106528
4	23806	60.876938021828	20.135093986
4	23808	60.87852806255	21.725134708
4	23812	60.880501120483	20.135093986
4	23818	60.900304214468	39.938187971
4	24139	61.723625584168	20.135093986
4	24151	61.739070523406	20.135093986
4	24172	61.756025535948	37.090106528
4	24174	61.756025535948	37.090106528
4	24435	62.715363315206	60.073281957
4	24440	62.717366006543	20.135093986
4	24457	62.734321019085	37.090106528
4	24459	62.734321019085	37.090106528
4	24765	63.67626643797	20.135093986
4	24782	63.693221450512	37.090106528
4	24784	63.693221450512	37.090106528
4	24787	63.696069531955	39.938187971
4	25196	64.439993132832	58.483241235
4	25201	64.446976101739	20.135093986
4	25218	64.463931114281	37.090106528
4	25220	64.463931114281	37.090106528
4	25294	64.631918763657	40.270187972
4	25305	64.651071783682	20.135093986
4	25318	64.651721857642	60.073281957
4	25326	64.668026796224	37.090106528
4	25522	65.481816490079	20.135093986
4	25539	65.498771502621	37.090106528
4	25541	65.498771502621	37.090106528
4	25544	65.501619584064	39.938187971
4	25666	65.678306160253	20.135093986
4	25683	65.695261172795	37.090106528
4	25685	65.695261172795	37.090106528
4	25688	65.698109254238	39.938187971
4	25922	66.424080287192	60.073281957
4	25932	66.437407041453	38.348147249
4	25945	66.438266380844	20.135093986
4	25970	66.454694053996	55.635159792
4	26284	67.365823050603	20.135093986
4	26313	67.382778063145	37.090106528
4	26315	67.382778063145	37.090106528
4	26320	67.385626144588	39.938187971
4	26660	68.330043983989	20.135093986
4	26664	68.332700616811	20.135093986
4	26670	68.352503710796	39.938187971
4	26685	68.454018193944	38.348147249
4	26817	68.743266119606	40.270187972
4	26821	68.754312809036	20.135093986
4	26840	68.763069213591	60.073281957
4	26844	68.771267821578	37.090106528
4	27057	69.555574298222	20.135093986
4	27059	69.570425338079	20.135093986
4	27061	69.572015378801	21.725134708
4	27065	69.575377392207	39.938187971
4	27203	70.073957597641	20.135093986
4	27210	70.075547638363	21.725134708
4	27221	70.093343704441	20.135093986
4	27238	70.110298716983	37.090106528
4	27293	70.554628861756	20.135093986
4	27307	70.571583874298	37.090106528
4	27310	70.574431955741	39.938187971
4	27329	70.602619778917	20.135093986
4	27497	70.964172803604	20.135093986
4	27499	70.965762844326	21.725134708
4	27503	70.968001609845	20.135093986
4	27522	70.984956622387	37.090106528
4	27842	71.874170375053	20.135093986
4	27846	71.877881674576	20.135093986
4	27852	71.897684768561	39.938187971
4	27867	72.028397681303	38.348147249
4	28023	72.443475150145	20.135093986
4	28025	72.44723840639	20.135093986
4	28027	72.448828447112	21.725134708
4	28031	72.46327824413	39.938187971
4	28298	73.196491330876	20.135093986
4	28315	73.213446343418	37.090106528
4	28317	73.213446343418	37.090106528
4	28320	73.216294424861	39.938187971
4	28418	73.432332738084	20.135093986
4	28422	73.446859126927	20.135093986
4	28424	73.448449167649	21.725134708
4	28428	73.452135832069	39.938187971
4	28525	73.656741371928	20.135093986
4	28529	73.658678294732	20.135093986
4	28534	73.678481388717	39.938187971
4	28551	73.751485332956	20.135093986
4	28782	74.40544204676	20.135093986
4	28784	74.408347845511	20.135093986
4	28786	74.409937886233	21.725134708
4	28794	74.425245140745	39.938187971
4	28866	74.667257805555	20.135093986
4	28885	74.684212818097	37.090106528
4	28887	74.684212818097	37.090106528
4	28890	74.68706089954	39.938187971
4	29247	75.550530902985	38.68014725
4	29256	75.55653200943	38.348147249
4	29265	75.567760922471	20.135093986
4	29282	75.57033399697	58.483241235
4	29415	75.826610366176	20.135093986
4	29432	75.843565378718	37.090106528
4	29434	75.843565378718	37.090106528
4	29437	75.846413460161	39.938187971
4	29450	76.104143890962	20.135093986
4	29467	76.121098903504	37.090106528
4	29469	76.121098903504	37.090106528
4	29472	76.123946984947	39.938187971
4	29736	76.678140967308	58.483241235
4	29741	76.685561271096	20.135093986
4	29758	76.702516283638	37.090106528
4	29760	76.702516283638	37.090106528
4	30095	77.608277161594	56.893200513
4	30097	77.608609161595	57.225200514
4	30101	77.615629926199	20.135093986
4	30120	77.632584938741	37.090106528
4	30456	78.374563234168	40.270187972
4	30460	78.378797772262	20.135093986
4	30479	78.394366328153	60.073281957
4	30483	78.395752784804	37.090106528
4	30789	79.270367109557	20.135093986
4	30806	79.287322122099	37.090106528
4	30808	79.287322122099	37.090106528
4	30811	79.290170203542	39.938187971
4	30915	79.573112572884	20.135093986
4	30923	79.574702613606	21.725134708
4	30927	79.589677196872	20.135093986
4	30947	79.606632209414	37.090106528
4	31136	80.251697571491	40.270187972
4	31140	80.265337219453	20.135093986
4	31159	80.271500665476	60.073281957
4	31163	80.282292231995	37.090106528
4	31192	80.47187733447	20.135093986
4	31196	80.481757408535	20.135093986
4	31202	80.50156050252	39.938187971
4	31233	80.531880797699	20.135093986
4	31287	80.643041200718	20.135093986
4	31306	80.65999621326	37.090106528
4	31308	80.65999621326	37.090106528
4	31313	80.662844294703	39.938187971
4	31602	81.373310061327	58.483241235
4	31611	81.390491353503	20.135093986
4	31628	81.407446366045	37.090106528
4	31630	81.407446366045	37.090106528
4	31961	82.129700629865	38.68014725
4	31967	82.145280606199	20.135093986
4	31986	82.14950372385	58.483241235
4	31990	82.162235618741	37.090106528
4	32107	82.465333703356	40.270187972
4	32111	82.475783022416	20.135093986
4	32130	82.485136797341	60.073281957
4	32148	82.492738034958	37.090106528
5	108	0.863019251125	3.180081444
5	123	0.875331139309	3.180081444
5	262	1.308116620313	3.180081444
5	278	1.313585002906	38.348147249
5	291	1.472049073153	3.180081444
5	322	1.528942273666	60.073281957
5	365	1.650465440424	3.180081444
5	416	1.687883669395	3.180081444
5	649	2.49982329898	3.180081444
5	704	2.556716499493	60.073281957
5	970	3.450025325734	3.180081444
5	1007	3.506918526247	60.073281957
5	1328	4.399398593488	3.180081444
5	1361	4.456291794001	60.073281957
5	1566	4.894139955542	3.180081444
5	1615	4.951033156055	60.073281957
5	1689	5.137212583376	3.180081444
5	1717	5.182565933907	38.348147249
5	1777	5.361577237933	3.180081444
5	1828	5.400617293704	58.483241235
5	1944	5.54896838197	3.180081444
5	1975	5.605861582483	60.073281957
5	2053	6.070754460455	3.180081444
5	2084	6.127647660968	60.073281957
5	2112	6.206023470522	3.180081444
5	2144	6.239511201524	58.483241235
5	2199	6.414200378652	3.180081444
5	2250	6.471093579165	60.073281957
5	2412	6.800385234622	3.180081444
5	2472	6.857278435135	60.073281957
5	2655	7.418737080275	3.180081444
5	2669	7.422596844466	58.483241235
5	2698	7.536833875767	3.180081444
5	2726	7.569313418004	4.770122166
5	3022	8.382879901259	3.180081444
5	3057	8.435213970277	4.770122166
5	3323	9.340354009579	3.180081444
5	3343	9.3556636021	38.348147249
5	3591	10.093082862861	3.180081444
5	3630	10.149976063374	60.073281957
5	3783	10.464500197467	3.180081444
5	3826	10.52139339798	60.073281957
5	3921	10.68584426944	39.938187971
5	3925	10.686426859187	3.180081444
5	4132	11.303319589422	3.180081444
5	4149	11.317629756102	39.938187971
5	4482	12.2060506118	3.180081444
5	4508	12.219361520885	4.770122166
5	4760	12.860054222518	3.180081444
5	4791	12.916947423031	60.073281957
5	5087	13.587740117731	3.180081444
5	5118	13.644633318244	60.073281957
5	5174	13.842206827505	3.180081444
5	5223	13.883832995936	60.073281957
5	5375	14.122203700385	3.180081444
5	5443	14.179096900898	60.073281957
5	5775	15.057476863778	3.180081444
5	5806	15.114370064291	60.073281957
5	5962	15.515875824425	3.180081444
5	6006	15.540449320846	58.483241235
5	6147	15.820548990695	3.180081444
5	6183	16.003875896844	38.348147249
5	6420	16.547258127853	3.180081444
5	6451	16.604151328366	60.073281957
5	6636	17.244028511061	3.180081444
5	6664	17.30007507198	39.938187971
5	6884	18.091972122946	3.180081444
5	6915	18.148865323459	60.073281957
5	7207	18.849742345232	3.180081444
5	7257	18.906635545745	60.073281957
5	7601	19.727212386392	3.180081444
5	7639	19.784105586905	60.073281957
5	7852	20.501009648456	3.180081444
5	7886	20.544643993119	3.180081444
5	8117	20.817755547934	3.180081444
5	8138	20.84901389617	39.938187971
5	8145	20.97531528715	3.180081444
5	8184	21.032208487663	60.073281957
5	8328	21.512380121275	3.180081444
5	8357	21.569273321788	60.073281957
5	8427	21.820911584235	3.180081444
5	8466	21.877804784748	60.073281957
5	8599	22.488314726226	3.180081444
5	8650	22.524128485068	60.073281957
5	8787	22.900824886792	3.180081444
5	8809	22.919482687949	58.483241235
5	8994	23.332551029556	3.180081444
5	9028	23.35888756669	58.483241235
5	9075	23.520611067068	3.180081444
5	9102	23.539704792996	3.180081444
5	9460	24.496238608238	3.180081444
5	9483	24.504455982058	3.180081444
5	9599	24.606523317842	3.180081444
5	9630	24.638990510671	38.348147249
5	9727	24.92735380926	3.180081444
5	9758	24.984247009773	60.073281957
5	10042	25.681693646729	3.180081444
5	10079	25.712247982475	58.483241235
5	10124	25.944729513277	3.180081444
5	10139	25.958342048808	3.180081444
5	10232	26.095892778898	3.180081444
[...]
5	20347	51.69113384745	60.073281957
5	20493	52.145593529145	3.180081444
5	20532	52.199291679629	20.135093986
5	20673	52.605424456854	3.180081444
5	20691	52.618491516471	4.770122166
5	20853	53.064669488274	3.180081444
5	20888	53.107075629266	4.770122166
5	21204	53.818377704286	3.180081444
5	21243	53.875270904799	60.073281957
5	21287	54.011346043899	3.180081444
5	21318	54.068239244412	60.073281957
5	21324	54.137617260494	3.180081444
5	21355	54.194510461007	60.073281957
5	21469	54.719042429721	3.180081444
5	21499	54.769562786816	4.770122166
5	21544	54.836253037604	3.180081444
5	21572	54.84828506319	38.348147249
5	21636	55.006579133587	39.938187971
5	21641	55.00873184006	3.180081444
5	21752	55.198744496189	3.180081444
5	21770	55.205457147978	4.770122166
5	21898	55.357788878538	3.180081444
5	21959	55.414682079051	60.073281957
5	22072	55.868557481326	3.180081444
5	22100	55.912111172287	38.348147249
5	22284	56.671889121852	3.180081444
5	22298	56.681931574333	58.483241235
5	22393	57.099397496345	3.180081444
5	22419	57.154700656136	58.483241235
5	22557	57.644659260729	4.770122166
5	22584	57.670545454992	58.483241235
5	22627	57.749826873208	3.180081444
5	22656	57.762400875146	39.938187971
5	22889	58.401406954064	3.180081444
5	22920	58.458300154577	60.073281957
5	23098	58.992873817331	39.938187971
5	23105	58.995957470567	3.180081444
5	23287	59.382367627903	3.180081444
5	23318	59.439260828416	60.073281957
5	23538	60.274977936594	3.180081444
5	23569	60.331871137107	60.073281957
5	23659	60.569789471499	3.180081444
5	23711	60.615188012476	58.483241235
5	23853	61.114351520709	3.180081444
5	23867	61.12297283627	58.483241235
5	23896	61.306523898871	3.180081444
5	23935	61.345786973438	4.770122166
5	24061	61.547268910122	3.180081444
5	24079	61.549663854873	58.483241235
5	24184	61.869170154676	3.180081444
5	24211	61.903899651186	3.180081444
5	24488	62.808475240435	3.180081444
5	24507	62.813379526532	38.348147249
5	24719	63.599376657628	4.770122166
5	24753	63.654679817419	60.073281957
5	24939	64.064169111543	3.180081444
5	24977	64.121062312056	60.073281957
5	25098	64.351597041984	3.180081444
5	25141	64.384689973041	3.180081444
5	25266	64.594828657129	3.180081444
5	25307	64.651071783682	20.135093986
5	25447	65.268544708912	3.180081444
5	25510	65.34970527598	58.483241235
5	25760	66.012092047462	3.180081444
5	25799	66.068985247975	60.073281957
5	26060	66.576166560615	3.180081444
5	26091	66.633059761128	60.073281957
5	26206	67.111332877956	3.180081444
5	26234	67.162149103936	38.348147249
5	26351	67.465886044663	3.180081444
5	26382	67.522779245176	60.073281957
5	26463	67.79711102871	3.180081444
5	26495	67.834933892059	3.180081444
5	26778	68.706176013078	3.180081444
5	26792	68.715316796598	60.073281957
5	26963	69.326114492442	3.180081444
5	26991	69.377491882136	38.348147249
5	27043	69.553470325537	3.180081444
5	27064	69.575377392207	39.938187971
5	27180	70.057002585099	3.180081444
5	27196	70.062965739468	58.483241235
5	27362	70.72196386412	3.180081444
5	27378	70.731865383168	38.348147249
5	27749	71.648655667316	3.180081444
5	27782	71.705548867829	60.073281957
5	28009	72.430283393848	3.180081444
5	28030	72.46327824413	39.938187971
5	28062	72.564866767889	38.348147249
5	28066	72.564984911771	3.180081444
5	28435	73.477819592131	3.180081444
5	28478	73.534712792644	60.073281957
5	28511	73.639786359386	3.180081444
5	28533	73.678481388717	39.938187971
5	28649	74.095496275786	3.180081444
5	28684	74.138500151853	4.770122166
5	28764	74.391392832969	3.180081444
5	28793	74.425245140745	39.938187971
5	28897	74.802347926281	3.180081444
5	28929	74.85442621054	3.180081444
5	29007	75.100441401869	3.180081444
5	29025	75.114936977718	4.770122166
5	29298	75.613514270306	3.180081444
5	29335	75.66730155691	4.770122166
5	29625	76.558759089278	3.180081444
5	29653	76.584205797407	4.770122166
5	29976	77.383496559014	3.180081444
5	29992	77.391056214428	60.073281957
5	30154	77.774043142608	3.180081444
5	30191	77.808701905185	58.483241235
5	30423	78.33747312764	3.180081444
5	30462	78.378797772262	20.135093986
5	30495	78.477051016803	3.180081444
5	30526	78.533944217316	60.073281957
5	30675	79.045124295608	3.180081444
5	30706	79.0828152894	38.348147249
5	30895	79.556157560342	3.180081444
5	30929	79.589677196872	20.135093986
5	31089	80.214607464963	3.180081444
5	31121	80.243411751433	58.483241235
5	31497	81.21084122965	3.180081444
5	31532	81.267734430163	60.073281957
5	31640	81.438476777751	3.180081444
5	31665	81.464391552451	3.180081444
5	31751	81.560322215151	3.180081444
5	31782	81.617215415664	60.073281957
5	32074	82.428243596828	3.180081444
5	32113	82.475783022416	20.135093986
6	124	0.875331139309	3.180081444
6	129	0.875331139309	3.180081444
6	154	0.898519316931	38.68014725
6	407	1.68596550623	38.68014725
6	417	1.687883669395	3.180081444
6	422	1.687883669395	3.180081444
6	722	2.668640178001	3.180081444
6	727	2.668640178001	3.180081444
6	745	2.702550203085	37.090106528
6	794	3.006740228274	3.180081444
6	799	3.006740228274	3.180081444
6	818	3.022666053311	3.180081444
6	1017	3.517275530636	3.180081444
6	1022	3.517275530636	3.180081444
6	1029	3.524915581066	38.68014725
6	1164	3.94083264249	3.180081444
6	1169	3.94083264249	3.180081444
6	1193	3.967728819942	38.68014725
6	1269	4.230176947989	3.180081444
6	1274	4.230176947989	3.180081444
6	1281	4.238553849128	38.68014725
6	1459	4.657516644058	3.180081444
6	1464	4.657516644058	3.180081444
6	1471	4.671302906272	38.68014725
6	1765	5.345314133913	3.180081444
6	1770	5.345314133913	3.180081444
6	1778	5.361577237933	3.180081444
6	2092	6.184208041733	3.180081444
6	2097	6.184208041733	3.180081444
6	2113	6.206023470522	3.180081444
6	2304	6.538734305255	3.180081444
6	2309	6.538734305255	3.180081444
6	2327	6.572644330339	37.090106528
6	2520	7.148675608869	3.180081444
6	2525	7.148675608869	3.180081444
6	2539	7.182585633953	37.090106528
6	2625	7.367293684675	3.180081444
6	2630	7.367293684675	3.180081444
6	2646	7.401203709759	37.090106528
6	2923	7.995155324393	3.180081444
6	2928	7.995155324393	3.180081444
6	2935	8.006332609347	37.090106528
6	3131	8.627993058206	3.180081444
6	3136	8.627993058206	3.180081444
6	3152	8.66190308329	37.090106528
6	3278	8.9956863147	3.180081444
6	3283	8.9956863147	3.180081444
6	3297	9.029596339784	37.090106528
6	3456	9.618831903001	3.180081444
6	3461	9.618831903001	3.180081444
6	3475	9.652741928085	37.090106528
6	3711	10.298423079869	3.180081444
6	3716	10.298423079869	3.180081444
6	3727	10.312089231261	4.770122166
6	4037	10.954636964088	3.180081444
6	4042	10.954636964088	3.180081444
6	4056	10.988546989172	37.090106528
6	4399	11.86152890255	3.180081444
6	4404	11.86152890255	3.180081444
6	4418	11.895438927634	37.090106528
6	4435	12.096032376753	3.180081444
6	4440	12.096032376753	3.180081444
6	4454	12.129942401837	37.090106528
6	4832	12.977345831276	3.180081444
6	4837	12.977345831276	3.180081444
6	4854	13.01125585636	37.090106528
6	5126	13.727195875908	3.180081444
6	5131	13.727195875908	3.180081444
6	5145	13.761105900992	37.090106528
6	5492	14.296128818628	3.180081444
6	5497	14.296128818628	3.180081444
6	5518	14.330038843712	37.090106528
6	5596	14.544353559476	3.180081444
6	5601	14.544353559476	3.180081444
6	5617	14.57826358456	37.090106528
6	5919	15.485146161055	3.180081444
6	5924	15.485146161055	3.180081444
6	5940	15.498503851333	3.180081444
6	6281	16.250741877968	3.180081444
6	6286	16.250741877968	3.180081444
6	6300	16.284651903052	37.090106528
6	6577	16.962195376146	3.180081444
6	6582	16.962195376146	3.180081444
6	6587	16.963474724475	38.68014725
6	6732	17.407312878247	3.180081444
6	6737	17.407312878247	3.180081444
6	6742	17.419481539248	38.68014725
6	6937	18.225555025556	3.180081444
6	6942	18.225555025556	3.180081444
6	6949	18.236875746572	38.68014725
6	7176	18.791935665768	3.180081444
6	7181	18.791935665768	3.180081444
6	7208	18.849742345232	3.180081444
6	7346	19.141801503326	3.180081444
6	7351	19.141801503326	3.180081444
6	7372	19.17571152841	37.090106528
6	7518	19.598255236728	3.180081444
6	7523	19.598255236728	3.180081444
6	7528	19.609899437531	38.68014725
6	7887	20.544643993119	3.180081444
6	7892	20.544643993119	3.180081444
6	7912	20.578554018203	37.090106528
6	8061	20.73490854325	3.180081444
6	8066	20.73490854325	3.180081444
6	8073	20.741710791514	38.68014725
6	8220	21.088465637064	3.180081444
6	8225	21.088465637064	3.180081444
6	8239	21.122375662148	37.090106528
6	8474	21.977320355249	3.180081444
6	8479	21.977320355249	3.180081444
6	8495	22.011230380333	37.090106528
6	8761	22.864179528158	3.180081444
6	8766	22.864179528158	3.180081444
6	8781	22.898089553242	37.090106528
6	9103	23.539704792996	3.180081444
6	9108	23.539704792996	3.180081444
6	9121	23.556111132874	38.68014725
6	9484	24.504455982058	3.180081444
6	9489	24.504455982058	3.180081444
6	9496	24.514194917899	38.68014725
6	9839	25.297978655973	3.180081444
6	9844	25.297978655973	3.180081444
6	9859	25.331888681057	37.090106528
6	9911	25.447815541157	3.180081444
6	9916	25.447815541157	3.180081444
6	9926	25.451654340304	4.770122166
6	10140	25.958342048808	3.180081444
6	10145	25.958342048808	3.180081444
6	10170	25.980229579083	38.68014725
6	10492	26.685639566442	3.180081444
6	10497	26.685639566442	3.180081444
6	10511	26.719549591526	37.090106528
6	10745	27.199509857295	3.180081444
6	10750	27.199509857295	3.180081444
6	10764	27.233419882379	37.090106528
6	10814	27.331336049878	3.180081444
6	10819	27.331336049878	3.180081444
6	10835	27.365246074962	37.090106528
6	11033	27.890351217778	3.180081444
6	11038	27.890351217778	3.180081444
6	11053	27.924261242862	37.090106528
6	11393	28.851116372042	3.180081444
6	11398	28.851116372042	3.180081444
6	11409	28.860222300144	4.770122166
6	11722	29.580776222425	3.180081444
6	11727	29.580776222425	3.180081444
6	11741	29.614686247509	37.090106528
6	12010	30.452726601602	3.180081444
6	12015	30.452726601602	3.180081444
6	12031	30.486636626686	37.090106528
6	12265	31.118735197119	3.180081444
6	12270	31.118735197119	3.180081444
6	12287	31.15159460379	37.090106528
6	12479	31.53977139795	3.180081444
6	12484	31.53977139795	3.180081444
6	12495	31.57142656842	37.090106528
6	12834	32.422311077759	3.180081444
6	12839	32.422311077759	3.180081444
6	12853	32.456221102843	37.090106528
6	12971	32.640260788988	3.180081444
6	12976	32.640260788988	3.180081444
6	12998	32.674170814072	37.090106528
6	13119	33.108409473792	3.180081444
6	13124	33.108409473792	3.180081444
6	13138	33.142319498876	37.090106528
6	13189	33.267183259389	3.180081444
6	13194	33.267183259389	3.180081444
6	13212	33.291719912572	3.180081444
6	13344	33.626741912173	3.180081444
6	13349	33.626741912173	3.180081444
6	13378	33.654972624558	38.68014725
6	13546	34.108422000524	3.180081444
6	13551	34.108422000524	3.180081444
6	13571	34.142332025608	37.090106528
6	13740	34.53053703984	37.090106528
6	13750	34.532127080562	38.68014725
6	13756	34.532913003913	3.180081444
6	13987	35.366382837184	3.180081444
6	13992	35.366382837184	3.180081444
6	14006	35.400292862268	37.090106528
6	14383	36.322240184718	3.180081444
6	14388	36.322240184718	3.180081444
6	14402	36.356150209802	37.090106528
6	14635	36.826602668017	3.180081444
6	14640	36.826602668017	3.180081444
6	14661	36.840654073383	38.68014725
6	14926	37.772791392174	3.180081444
6	14931	37.772791392174	3.180081444
6	14946	37.806701417258	37.090106528
6	14996	38.009910624711	3.180081444
6	15001	38.009910624711	3.180081444
6	15021	38.043820649795	37.090106528
6	15155	38.653616649545	3.180081444
6	15160	38.653616649545	3.180081444
6	15170	38.669798631255	38.68014725
6	15386	39.250487092653	3.180081444
6	15391	39.250487092653	3.180081444
6	15407	39.284397117737	37.090106528
6	15591	39.686218469803	3.180081444
6	15596	39.686218469803	3.180081444
6	15602	39.69449983056	38.68014725
6	15747	40.01449674005	3.180081444
6	15752	40.01449674005	3.180081444
6	15768	40.048406765134	37.090106528
6	16048	40.780584514703	3.180081444
6	16053	40.780584514703	3.180081444
6	16079	40.827633948532	3.180081444
6	16253	41.135014196907	3.180081444
6	16258	41.135014196907	3.180081444
6	16274	41.168924221991	37.090106528
6	16680	42.064914514057	3.180081444
6	16685	42.064914514057	3.180081444
6	16701	42.098824539141	37.090106528
6	16883	42.705267524279	3.180081444
6	16888	42.705267524279	3.180081444
6	16893	42.71839531915	37.090106528
6	17044	43.105835910074	3.180081444
6	17049	43.105835910074	3.180081444
6	17063	43.139745935158	37.090106528
6	17333	43.673793050067	3.180081444
6	17338	43.673793050067	3.180081444
6	17354	43.707703075151	37.090106528
6	17367	43.893908372454	3.180081444
6	17372	43.893908372454	3.180081444
6	17386	43.927818397538	37.090106528
6	17668	44.778515535642	3.180081444
6	17673	44.778515535642	3.180081444
6	17696	44.798914022685	37.090106528
6	17761	45.035810342294	3.180081444
6	17766	45.035810342294	3.180081444
6	17780	45.069720367378	37.090106528
6	17907	45.405836366259	3.180081444
6	17912	45.405836366259	3.180081444
6	17919	45.413199348628	3.180081444
6	18337	46.322924398121	3.180081444
6	18342	46.322924398121	3.180081444
6	18356	46.356834423205	37.090106528
6	18410	46.696926127237	3.180081444
6	18415	46.696926127237	3.180081444
6	18429	46.730836152321	37.090106528
6	18589	47.122896279001	3.180081444
6	18594	47.122896279001	3.180081444
6	18608	47.156806304085	37.090106528
6	18807	47.835210083148	3.180081444
6	18812	47.835210083148	3.180081444
6	18843	47.865024829853	37.090106528
6	19059	48.238939724888	3.180081444
6	19064	48.238939724888	3.180081444
6	19075	48.257911308607	37.090106528
6	19305	49.238289913863	3.180081444
6	19310	49.238289913863	3.180081444
6	19326	49.272199938947	37.090106528
6	19633	49.966713547522	3.180081444
6	19638	49.966713547522	3.180081444
6	19652	49.994834961818	38.68014725
6	19867	50.737571812586	3.180081444
6	19872	50.737571812586	3.180081444
6	19877	50.74632189156	38.68014725
6	20172	51.454012808229	3.180081444
6	20177	51.454012808229	3.180081444
6	20193	51.481559216857	3.180081444
6	20567	52.327635559186	3.180081444
6	20572	52.327635559186	3.180081444
6	20586	52.36154558427	37.090106528
6	20786	52.737881869127	3.180081444
6	20791	52.737881869127	3.180081444
6	20805	52.771791894211	37.090106528
6	20828	52.900919838997	3.180081444
6	20833	52.900919838997	3.180081444
6	20854	53.064669488274	3.180081444
6	21037	53.588998879704	3.180081444
6	21042	53.588998879704	3.180081444
6	21056	53.622908904788	37.090106528
6	21132	53.715954168981	3.180081444
6	21137	53.715954168981	3.180081444
6	21144	53.724216355928	38.68014725
6	21430	54.448849912805	3.180081444
6	21435	54.448849912805	3.180081444
6	21451	54.482759937889	37.090106528
6	21470	54.719042429721	3.180081444
6	21475	54.720360138898	3.180081444
6	21490	54.754270163982	37.090106528
6	21843	55.286032841836	20.135093986
6	21848	55.28669496698	3.180081444
6	21864	55.307138972225	37.090106528
6	22125	56.082804955451	3.180081444
6	22130	56.082804955451	3.180081444
6	22155	56.110015737903	38.68014725
6	22202	56.207226535642	37.090106528
6	22213	56.208862252675	3.180081444
6	22218	56.208862252675	3.180081444
6	22394	57.099397496345	3.180081444
6	22399	57.099397496345	3.180081444
6	22411	57.133307521429	37.090106528
6	22432	57.43421154658	3.180081444
6	22437	57.43421154658	3.180081444
6	22451	57.439016994018	4.770122166
6	22686	57.783817790101	3.180081444
6	22691	57.783817790101	3.180081444
6	22694	57.785326939014	38.68014725
6	23042	58.677524640739	3.180081444
6	23055	58.711434665823	37.090106528
6	23081	58.958803887059	4.770122166
6	23362	59.567183556433	3.180081444
6	23367	59.567183556433	3.180081444
6	23381	59.601093581517	37.090106528
6	23648	60.559884852685	3.180081444
6	23653	60.559884852685	3.180081444
6	23660	60.569789471499	3.180081444
6	23825	61.067669676479	3.180081444
6	23830	61.067669676479	3.180081444
6	23844	61.101579701563	37.090106528
6	24212	61.903899651186	3.180081444
6	24217	61.903899651186	3.180081444
6	24220	61.904670220482	38.68014725
6	24294	62.221860382848	3.180081444
6	24299	62.221860382848	3.180081444
6	24315	62.255770407932	37.090106528
6	24350	62.357853907861	3.180081444
6	24355	62.357853907861	3.180081444
6	24360	62.36191641424	37.090106528
6	24578	63.186282381557	3.180081444
6	24583	63.186282381557	3.180081444
6	24598	63.220192406641	37.090106528
6	24833	63.84578127675	3.180081444
6	24838	63.84578127675	3.180081444
6	24857	63.864106622058	4.770122166
6	25142	64.384689973041	3.180081444
6	25147	64.384689973041	3.180081444
6	25153	64.38709710779	38.68014725
6	25340	65.029830732013	3.180081444
6	25345	65.029830732013	3.180081444
6	25360	65.063740757097	37.090106528
6	25589	65.561276832156	3.180081444
6	25594	65.561276832156	3.180081444
6	25604	65.567081949544	38.68014725
6	25980	66.455332134225	3.180081444
6	25985	66.455332134225	3.180081444
6	26005	66.473414794821	4.770122166
6	26244	67.194742313101	3.180081444
6	26249	67.194742313101	3.180081444
6	26263	67.228652338185	37.090106528
6	26488	67.832611094516	38.68014725
6	26496	67.834933892059	3.180081444
6	26501	67.834933892059	3.180081444
6	26571	68.101899995076	3.180081444
6	26576	68.101899995076	3.180081444
6	26590	68.13581002016	37.090106528
6	26712	68.486788303269	3.180081444
6	26717	68.486788303269	3.180081444
6	26735	68.520698328353	37.090106528
6	26935	69.245358072574	3.180081444
6	26940	69.245358072574	3.180081444
6	26954	69.279268097658	37.090106528
6	27146	70.007662579677	3.180081444
6	27151	70.007662579677	3.180081444
6	27169	70.041572604761	37.090106528
6	27296	70.554628861756	20.135093986
6	27301	70.556024187923	3.180081444
6	27320	70.587254807097	4.770122166
6	27431	70.846333502772	3.180081444
6	27436	70.846333502772	3.180081444
6	27450	70.880243527856	37.090106528
6	27644	71.247359867374	3.180081444
6	27649	71.247359867374	3.180081444
6	27663	71.281269892458	37.090106528
6	27824	71.857215362511	3.180081444
6	27829	71.857215362511	3.180081444
6	27863	72.027139640582	37.090106528
6	28046	72.548802386227	3.180081444
6	28051	72.548802386227	3.180081444
6	28058	72.563608727168	37.090106528
6	28149	72.843985614533	3.180081444
6	28154	72.843985614533	3.180081444
6	28174	72.873365882994	4.770122166
6	28329	73.243750441101	3.180081444
6	28334	73.243750441101	3.180081444
6	28348	73.277660466185	37.090106528
6	28512	73.639786359386	3.180081444
6	28518	73.640990777364	3.180081444
6	28544	73.736120361136	4.770122166
6	28615	74.020746758025	3.180081444
6	28620	74.020746758025	3.180081444
6	28634	74.054656783109	37.090106528
6	28930	74.85442621054	3.180081444
6	28935	74.85442621054	3.180081444
6	28955	74.888336235624	37.090106528
6	29192	75.515030837179	3.180081444
6	29197	75.515030837179	3.180081444
6	29212	75.526146753864	37.090106528
6	29591	76.406286839027	3.180081444
6	29596	76.406286839027	3.180081444
6	29610	76.440196864111	37.090106528
6	29922	77.335753054637	4.770122166
6	29928	77.33583400166	3.180081444
6	29933	77.33583400166	3.180081444
6	30027	77.44678804898	3.180081444
6	30032	77.44678804898	3.180081444
6	30046	77.480698074064	37.090106528
6	30134	77.753398745394	3.180081444
6	30139	77.753398745394	3.180081444
6	30155	77.774043142608	3.180081444
6	30244	77.941307478658	3.180081444
6	30249	77.941307478658	3.180081444
6	30263	77.975217503742	37.090106528
6	30365	78.247089373534	3.180081444
6	30370	78.247089373534	3.180081444
6	30394	78.272823321223	38.68014725
6	30640	78.984982722559	3.180081444
6	30645	78.984982722559	3.180081444
6	30659	79.018892747643	37.090106528
6	30820	79.34377277431	3.180081444
6	30825	79.34377277431	3.180081444
6	30839	79.377682799394	37.090106528
6	31034	79.97354787344	3.180081444
6	31039	79.97354787344	3.180081444
6	31053	80.007457898524	37.090106528
6	31209	80.514925785157	3.180081444
6	31214	80.514925785157	3.180081444
6	31225	80.525913548562	4.770122166
6	31666	81.464391552451	3.180081444
6	31671	81.464391552451	3.180081444
6	31677	81.473976843557	38.68014725
6	31863	81.951495940824	3.180081444
6	31868	81.951495940824	3.180081444
6	31891	81.982042731065	3.180081444
6	32040	82.290565239386	3.180081444
6	32045	82.290565239386	3.180081444
6	32059	82.32447526447	37.090106528
6	32218	82.670131536112	3.180081444
6	32223	82.670131536112	3.180081444

