file 106273 1649714038                                          
version 2
run General-0-20220411-14:53:19-2720
attr configname General
attr datetime 20220411-14:53:19
attr experiment General
attr inifile omnetpp.ini
attr iterationvars ""
attr iterationvarsf ""
attr measurement ""
attr network UP4
attr processid 2720
attr repetition 0
attr replication #0
attr resultdir results
attr runnumber 0
attr seedset 0
param *.client1.packet_drop 0.03
param *.client2.packet_drop 0.04
param *.client3.packet_drop 0.05
param *.client4.packet_drop 0.06
param *.node1.packet_drop 0.01
param *.node2.packet_drop 0.01
param *.node3.packet_drop 0.02
param *.node4.packet_drop 0.02
param *.node5.packet_drop 0.01

vector 0 UP4.node7 "" ETV
vector 1 UP4.node1 "" ETV
vector 2 UP4.node2 "" ETV
vector 3 UP4.node5 "" ETV
vector 4 UP4.node3 "" ETV
vector 5 UP4.node4 "" ETV
vector 6 UP4.node6 "" ETV
0	850 5502 4 32136 0.593574941089 82.489163500745 151 3.180081444 39.938187971 570.66352364 5092.2515892289
1	6352 11450 17 32199 0.597112233518 82.638163250442 310 3.180081444 24.905216152 3647.778482212 66075.122734181
2	17802 16773 38 32032 0.636740236194 82.218016243119 453 3.180081444 75.106253776 16794.788926668 956785.5644975
3	34575 21866 44 32225 0.645667114784 82.671721576834 595 3.180081444 39.938187971 8720.6976162221 273544.91535858
4	56441 22163 79 32148 0.76380552246 82.492738034958 592 20.135093986 60.073281957 19875.070139809 746358.21214491
5	78604 11862 108 32113 0.863019251125 82.475783022416 322 3.180081444 60.073281957 7650.455727228 389377.80683189
6	90466 15805 124 32223 0.875331139309 82.670131536112 431 3.180081444 38.68014725 5540.509847852 172782.88339027

